version 3
run Grid-0-20231124-11:06:39-11800
attr configname Grid
attr datetime 20231124-11:06:39
attr datetimef 20231124-110639
attr experiment Grid
attr inifile omnetpp.ini
attr iterationvars ""
attr iterationvarsd ""
attr iterationvarsf ""
attr measurement ""
attr network Grid
attr processid 11800
attr repetition 0
attr replication #0
attr resultdir results
attr runnumber 0
attr seedset 0
config image-path ../../inet4.5/images
config network Grid
config *.visualizer.*.mobilityVisualizer.displayMobility true
config *.visualizer.*.mobilityVisualizer.displayPositions true
config *.visualizer.*.mobilityVisualizer.displayOrientations true
config *.visualizer.*.mobilityVisualizer.displayVelocities true
config *.visualizer.*.mobilityVisualizer.displayMovementTrails true
config **.constraintAreaMinX 0m
config **.constraintAreaMaxX 500m
config **.constraintAreaMinY 0m
config **.constraintAreaMaxY 500m
config **.constraintAreaMinZ 0m
config **.constraintAreaMaxZ 0m
config *.radioMedium.backgroundNoise.typename IsotropicScalarBackgroundNoise
config *.radioMedium.backgroundNoise.power -110dBm
config *.target*.mobility.typename GaussMarkovMobility
config *.target*.mobility.speed 20mps
config *.target*.mobility.margin 0m
config *.target*.mobility.speedStdDev 4mps
config *.target*.mobility.angleStdDev 0.2rad
config *.target*.mobility.alpha 0.5
config *.host[*].mobility.typename StaticGridMobility
config *.host[*].mobility.numHosts 9

scalar Grid.host[0].mobility x 83.333333333333
scalar Grid.host[0].mobility y 83.333333333333
scalar Grid.host[0].mobility z 0
scalar Grid.host[1].mobility x 250
scalar Grid.host[1].mobility y 83.333333333333
scalar Grid.host[1].mobility z 0
scalar Grid.host[2].mobility x 416.66666666667
scalar Grid.host[2].mobility y 83.333333333333
scalar Grid.host[2].mobility z 0
scalar Grid.host[3].mobility x 83.333333333333
scalar Grid.host[3].mobility y 250
scalar Grid.host[3].mobility z 0
scalar Grid.host[4].mobility x 250
scalar Grid.host[4].mobility y 250
scalar Grid.host[4].mobility z 0
scalar Grid.host[5].mobility x 416.66666666667
scalar Grid.host[5].mobility y 250
scalar Grid.host[5].mobility z 0
scalar Grid.host[6].mobility x 83.333333333333
scalar Grid.host[6].mobility y 416.66666666667
scalar Grid.host[6].mobility z 0
scalar Grid.host[7].mobility x 250
scalar Grid.host[7].mobility y 416.66666666667
scalar Grid.host[7].mobility z 0
scalar Grid.host[8].mobility x 416.66666666667
scalar Grid.host[8].mobility y 416.66666666667
scalar Grid.host[8].mobility z 0
par Grid.visualizer.canvasVisualizer.sceneVisualizer typename "\"inet.visualizer.canvas.scene.SceneCanvasVisualizer\""
par Grid.visualizer.canvasVisualizer.sceneVisualizer visualizationTargetModule "\"^.^.^\""
par Grid.visualizer.canvasVisualizer.sceneVisualizer visualizationSubjectModule "\"^.^.^\""
par Grid.visualizer.canvasVisualizer.sceneVisualizer tags "\"\""
par Grid.visualizer.canvasVisualizer.sceneVisualizer physicalEnvironmentModule "\"physicalEnvironment\""
par Grid.visualizer.canvasVisualizer.sceneVisualizer networkNodeVisualizerModule "\"^.networkNodeVisualizer\""
par Grid.visualizer.canvasVisualizer.sceneVisualizer axisLength "nan m"
attr mutable ""
attr unit m
par Grid.visualizer.canvasVisualizer.sceneVisualizer animationSpeed 0
par Grid.visualizer.canvasVisualizer.sceneVisualizer sceneMinX "nan m"
attr unit m
par Grid.visualizer.canvasVisualizer.sceneVisualizer sceneMinY "nan m"
attr unit m
par Grid.visualizer.canvasVisualizer.sceneVisualizer sceneMinZ "nan m"
attr unit m
par Grid.visualizer.canvasVisualizer.sceneVisualizer sceneMaxX "nan m"
attr unit m
par Grid.visualizer.canvasVisualizer.sceneVisualizer sceneMaxY "nan m"
attr unit m
par Grid.visualizer.canvasVisualizer.sceneVisualizer sceneMaxZ "nan m"
attr unit m
par Grid.visualizer.canvasVisualizer.sceneVisualizer zIndex 0
par Grid.visualizer.canvasVisualizer.sceneVisualizer viewAngle "\"x right y down z out\""
attr mutable ""
par Grid.visualizer.canvasVisualizer.sceneVisualizer viewScale "\"1 1\""
attr mutable ""
par Grid.visualizer.canvasVisualizer.sceneVisualizer viewTranslation "\"0 0\""
attr mutable ""
par Grid.visualizer.canvasVisualizer.sceneVisualizer descriptionFigure "\"\""
par Grid.visualizer.canvasVisualizer.physicalEnvironmentVisualizer typename "\"inet.visualizer.canvas.environment.PhysicalEnvironmentCanvasVisualizer\""
par Grid.visualizer.canvasVisualizer.physicalEnvironmentVisualizer visualizationTargetModule "\"^.^.^\""
par Grid.visualizer.canvasVisualizer.physicalEnvironmentVisualizer visualizationSubjectModule "\"^.^.^\""
par Grid.visualizer.canvasVisualizer.physicalEnvironmentVisualizer tags "\"\""
par Grid.visualizer.canvasVisualizer.physicalEnvironmentVisualizer physicalEnvironmentModule "\"physicalEnvironment\""
par Grid.visualizer.canvasVisualizer.physicalEnvironmentVisualizer displayObjects true
par Grid.visualizer.canvasVisualizer.physicalEnvironmentVisualizer zIndex 0
par Grid.visualizer.canvasVisualizer.networkNodeVisualizer typename "\"inet.visualizer.canvas.scene.NetworkNodeCanvasVisualizer\""
par Grid.visualizer.canvasVisualizer.networkNodeVisualizer visualizationTargetModule "\"^.^.^\""
par Grid.visualizer.canvasVisualizer.networkNodeVisualizer visualizationSubjectModule "\"^.^.^\""
par Grid.visualizer.canvasVisualizer.networkNodeVisualizer tags "\"\""
par Grid.visualizer.canvasVisualizer.networkNodeVisualizer nodeFilter "\"*\""
attr mutable ""
par Grid.visualizer.canvasVisualizer.networkNodeVisualizer annotationSpacing 4
par Grid.visualizer.canvasVisualizer.networkNodeVisualizer placementPenalty 10
par Grid.visualizer.canvasVisualizer.networkNodeVisualizer zIndex 0
par Grid.visualizer.canvasVisualizer.networkConnectionVisualizer typename "\"inet.visualizer.canvas.scene.NetworkConnectionCanvasVisualizer\""
par Grid.visualizer.canvasVisualizer.networkConnectionVisualizer visualizationTargetModule "\"^.^.^\""
par Grid.visualizer.canvasVisualizer.networkConnectionVisualizer visualizationSubjectModule "\"^.^.^\""
par Grid.visualizer.canvasVisualizer.networkConnectionVisualizer tags "\"\""
par Grid.visualizer.canvasVisualizer.networkConnectionVisualizer displayNetworkConnections true
par Grid.visualizer.canvasVisualizer.networkConnectionVisualizer nodeFilter "\"\""
attr mutable ""
par Grid.visualizer.canvasVisualizer.networkConnectionVisualizer lineColor "\"black\""
par Grid.visualizer.canvasVisualizer.networkConnectionVisualizer lineStyle "\"solid\""
par Grid.visualizer.canvasVisualizer.networkConnectionVisualizer lineWidth 1
par Grid.visualizer.canvasVisualizer.networkConnectionVisualizer zIndex 0
par Grid.visualizer.canvasVisualizer.mobilityVisualizer typename "\"inet.visualizer.canvas.mobility.MobilityCanvasVisualizer\""
par Grid.visualizer.canvasVisualizer.mobilityVisualizer visualizationTargetModule "\"^.^.^\""
par Grid.visualizer.canvasVisualizer.mobilityVisualizer visualizationSubjectModule "\"^.^.^\""
par Grid.visualizer.canvasVisualizer.mobilityVisualizer tags "\"\""
par Grid.visualizer.canvasVisualizer.mobilityVisualizer networkNodeVisualizerModule "\"^.networkNodeVisualizer\""
par Grid.visualizer.canvasVisualizer.mobilityVisualizer displayMobility true
par Grid.visualizer.canvasVisualizer.mobilityVisualizer animationSpeed 0
par Grid.visualizer.canvasVisualizer.mobilityVisualizer moduleFilter "\"**.mobility\""
attr mutable ""
par Grid.visualizer.canvasVisualizer.mobilityVisualizer displayPositions true
par Grid.visualizer.canvasVisualizer.mobilityVisualizer positionCircleRadius 4
par Grid.visualizer.canvasVisualizer.mobilityVisualizer positionCircleLineWidth 1
par Grid.visualizer.canvasVisualizer.mobilityVisualizer positionCircleLineColor "\"dark\""
attr enum light,dark
par Grid.visualizer.canvasVisualizer.mobilityVisualizer positionCircleFillColor "\"dark\""
attr enum light,dark
par Grid.visualizer.canvasVisualizer.mobilityVisualizer displayOrientations true
par Grid.visualizer.canvasVisualizer.mobilityVisualizer orientationPieRadius 32
par Grid.visualizer.canvasVisualizer.mobilityVisualizer orientationPieSize 0.2
par Grid.visualizer.canvasVisualizer.mobilityVisualizer orientationPieOpacity 0.25
par Grid.visualizer.canvasVisualizer.mobilityVisualizer orientationLineColor "\"black\""
par Grid.visualizer.canvasVisualizer.mobilityVisualizer orientationLineStyle "\"solid\""
par Grid.visualizer.canvasVisualizer.mobilityVisualizer orientationLineWidth 1
par Grid.visualizer.canvasVisualizer.mobilityVisualizer orientationFillColor "\"blue\""
par Grid.visualizer.canvasVisualizer.mobilityVisualizer displayVelocities true
par Grid.visualizer.canvasVisualizer.mobilityVisualizer velocityArrowScale 1
par Grid.visualizer.canvasVisualizer.mobilityVisualizer velocityLineColor "\"black\""
par Grid.visualizer.canvasVisualizer.mobilityVisualizer velocityLineStyle "\"solid\""
par Grid.visualizer.canvasVisualizer.mobilityVisualizer velocityLineWidth 1
par Grid.visualizer.canvasVisualizer.mobilityVisualizer displayMovementTrails true
par Grid.visualizer.canvasVisualizer.mobilityVisualizer movementTrailLineColor "\"dark\""
attr enum light,dark
par Grid.visualizer.canvasVisualizer.mobilityVisualizer movementTrailLineStyle "\"solid\""
par Grid.visualizer.canvasVisualizer.mobilityVisualizer movementTrailLineWidth 1
par Grid.visualizer.canvasVisualizer.mobilityVisualizer trailLength 100
par Grid.visualizer.canvasVisualizer.mobilityVisualizer zIndex 0
par Grid.visualizer.canvasVisualizer.statisticVisualizer typename "\"inet.visualizer.canvas.common.StatisticCanvasVisualizer\""
par Grid.visualizer.canvasVisualizer.statisticVisualizer visualizationTargetModule "\"^.^.^\""
par Grid.visualizer.canvasVisualizer.statisticVisualizer visualizationSubjectModule "\"^.^.^\""
par Grid.visualizer.canvasVisualizer.statisticVisualizer tags "\"\""
par Grid.visualizer.canvasVisualizer.statisticVisualizer networkNodeVisualizerModule "\"^.networkNodeVisualizer\""
par Grid.visualizer.canvasVisualizer.statisticVisualizer displayStatistics true
par Grid.visualizer.canvasVisualizer.statisticVisualizer signalName "\"\""
par Grid.visualizer.canvasVisualizer.statisticVisualizer statisticName "\"\""
par Grid.visualizer.canvasVisualizer.statisticVisualizer statisticUnit "\"\""
par Grid.visualizer.canvasVisualizer.statisticVisualizer statisticExpression "\"\""
par Grid.visualizer.canvasVisualizer.statisticVisualizer sourceFilter "\"**\""
attr mutable ""
par Grid.visualizer.canvasVisualizer.statisticVisualizer format "\"%n: %v %u\""
attr mutable ""
par Grid.visualizer.canvasVisualizer.statisticVisualizer unit "\"\""
par Grid.visualizer.canvasVisualizer.statisticVisualizer font "\"<default>\""
par Grid.visualizer.canvasVisualizer.statisticVisualizer textColor "\"black\""
par Grid.visualizer.canvasVisualizer.statisticVisualizer backgroundColor "\"white\""
par Grid.visualizer.canvasVisualizer.statisticVisualizer opacity 1
par Grid.visualizer.canvasVisualizer.statisticVisualizer placementHint "\"top\""
par Grid.visualizer.canvasVisualizer.statisticVisualizer placementPriority 0
par Grid.visualizer.canvasVisualizer.statisticVisualizer zIndex 10
par Grid.visualizer.canvasVisualizer.statisticVisualizer propertyName "\"\""
par Grid.visualizer.canvasVisualizer.statisticVisualizer propertyIndex "\"\""
par Grid.visualizer.canvasVisualizer.infoVisualizer typename "\"inet.visualizer.canvas.common.InfoCanvasVisualizer\""
par Grid.visualizer.canvasVisualizer.infoVisualizer visualizationTargetModule "\"^.^.^\""
par Grid.visualizer.canvasVisualizer.infoVisualizer visualizationSubjectModule "\"^.^.^\""
par Grid.visualizer.canvasVisualizer.infoVisualizer tags "\"\""
par Grid.visualizer.canvasVisualizer.infoVisualizer networkNodeVisualizerModule "\"^.networkNodeVisualizer\""
par Grid.visualizer.canvasVisualizer.infoVisualizer displayInfos true
par Grid.visualizer.canvasVisualizer.infoVisualizer modules "\"\""
attr mutable ""
par Grid.visualizer.canvasVisualizer.infoVisualizer format "\"%t\""
attr mutable ""
par Grid.visualizer.canvasVisualizer.infoVisualizer font "\"<default>\""
par Grid.visualizer.canvasVisualizer.infoVisualizer textColor "\"black\""
par Grid.visualizer.canvasVisualizer.infoVisualizer backgroundColor "\"white\""
par Grid.visualizer.canvasVisualizer.infoVisualizer opacity 1
par Grid.visualizer.canvasVisualizer.infoVisualizer placementHint "\"top\""
par Grid.visualizer.canvasVisualizer.infoVisualizer placementPriority 0
par Grid.visualizer.canvasVisualizer.infoVisualizer zIndex 10
par Grid.visualizer.canvasVisualizer.energyStorageVisualizer typename "\"inet.visualizer.canvas.power.EnergyStorageCanvasVisualizer\""
par Grid.visualizer.canvasVisualizer.energyStorageVisualizer visualizationTargetModule "\"^.^.^\""
par Grid.visualizer.canvasVisualizer.energyStorageVisualizer visualizationSubjectModule "\"^.^.^\""
par Grid.visualizer.canvasVisualizer.energyStorageVisualizer tags "\"\""
par Grid.visualizer.canvasVisualizer.energyStorageVisualizer networkNodeVisualizerModule "\"^.networkNodeVisualizer\""
par Grid.visualizer.canvasVisualizer.energyStorageVisualizer displayEnergyStorages false
par Grid.visualizer.canvasVisualizer.energyStorageVisualizer energyStorageFilter "\"**\""
par Grid.visualizer.canvasVisualizer.energyStorageVisualizer color "\"green\""
par Grid.visualizer.canvasVisualizer.energyStorageVisualizer width 8
par Grid.visualizer.canvasVisualizer.energyStorageVisualizer height 24
par Grid.visualizer.canvasVisualizer.energyStorageVisualizer spacing 2
par Grid.visualizer.canvasVisualizer.energyStorageVisualizer placementHint "\"right\""
par Grid.visualizer.canvasVisualizer.energyStorageVisualizer placementPriority 0
par Grid.visualizer.canvasVisualizer.energyStorageVisualizer zIndex 10
par Grid.visualizer.canvasVisualizer.mediumVisualizer typename "\"inet.visualizer.canvas.physicallayer.MediumCanvasVisualizer\""
par Grid.visualizer.canvasVisualizer.mediumVisualizer visualizationTargetModule "\"^.^.^\""
par Grid.visualizer.canvasVisualizer.mediumVisualizer visualizationSubjectModule "\"^.^.^\""
par Grid.visualizer.canvasVisualizer.mediumVisualizer tags "\"\""
par Grid.visualizer.canvasVisualizer.mediumVisualizer mediumModule "\"radioMedium\""
par Grid.visualizer.canvasVisualizer.mediumVisualizer networkNodeVisualizerModule "\"^.networkNodeVisualizer\""
par Grid.visualizer.canvasVisualizer.mediumVisualizer nodeFilter "\"*\""
attr mutable ""
par Grid.visualizer.canvasVisualizer.mediumVisualizer interfaceFilter "\"*\""
attr mutable ""
par Grid.visualizer.canvasVisualizer.mediumVisualizer packetFilter "(omnetpp::cValueHolder)holder: \"*\""
attr mutable ""
par Grid.visualizer.canvasVisualizer.mediumVisualizer displaySignals false
par Grid.visualizer.canvasVisualizer.mediumVisualizer signalColor "\"dark\""
attr enum light,dark
par Grid.visualizer.canvasVisualizer.mediumVisualizer signalPropagationAnimationSpeed "nan "
attr mutable ""
par Grid.visualizer.canvasVisualizer.mediumVisualizer signalPropagationAnimationTime 1s
attr unit s
par Grid.visualizer.canvasVisualizer.mediumVisualizer signalPropagationAdditionalTime 0s
attr unit s
par Grid.visualizer.canvasVisualizer.mediumVisualizer signalTransmissionAnimationSpeed "nan "
attr mutable ""
par Grid.visualizer.canvasVisualizer.mediumVisualizer signalTransmissionAnimationTime 1s
attr unit s
par Grid.visualizer.canvasVisualizer.mediumVisualizer signalAnimationSpeedChangeTimeMode "\"realTime\""
attr enum realTime,animationTime,simulationTime
par Grid.visualizer.canvasVisualizer.mediumVisualizer signalAnimationSpeedChangeTime 1s
attr unit s
par Grid.visualizer.canvasVisualizer.mediumVisualizer displaySignalDepartures false
par Grid.visualizer.canvasVisualizer.mediumVisualizer signalDepartureImage "\"misc/signal_departure.png\""
par Grid.visualizer.canvasVisualizer.mediumVisualizer signalDeparturePlacementHint "\"topCenter\""
par Grid.visualizer.canvasVisualizer.mediumVisualizer signalDeparturePlacementPriority 1
par Grid.visualizer.canvasVisualizer.mediumVisualizer displaySignalArrivals false
par Grid.visualizer.canvasVisualizer.mediumVisualizer signalArrivalImage "\"misc/signal_arrival.png\""
par Grid.visualizer.canvasVisualizer.mediumVisualizer signalArrivalPlacementHint "\"topCenter\""
par Grid.visualizer.canvasVisualizer.mediumVisualizer signalArrivalPlacementPriority -1
par Grid.visualizer.canvasVisualizer.mediumVisualizer displayCommunicationRanges false
par Grid.visualizer.canvasVisualizer.mediumVisualizer communicationRangeLineColor "\"blue\""
par Grid.visualizer.canvasVisualizer.mediumVisualizer communicationRangeLineStyle "\"solid\""
par Grid.visualizer.canvasVisualizer.mediumVisualizer communicationRangeLineWidth 1
par Grid.visualizer.canvasVisualizer.mediumVisualizer displayInterferenceRanges false
par Grid.visualizer.canvasVisualizer.mediumVisualizer interferenceRangeLineColor "\"gray\""
par Grid.visualizer.canvasVisualizer.mediumVisualizer interferenceRangeLineStyle "\"solid\""
par Grid.visualizer.canvasVisualizer.mediumVisualizer interferenceRangeLineWidth 1
par Grid.visualizer.canvasVisualizer.mediumVisualizer autoPowerAxis true
par Grid.visualizer.canvasVisualizer.mediumVisualizer signalMinPower "inf dBmW"
attr unit dBmW
par Grid.visualizer.canvasVisualizer.mediumVisualizer signalMaxPower 0dBmW
attr unit dBmW
par Grid.visualizer.canvasVisualizer.mediumVisualizer signalMinPowerDensity "inf dBmWpMHz"
attr unit dBmWpMHz
par Grid.visualizer.canvasVisualizer.mediumVisualizer signalMaxPowerDensity "-inf dBmWpMHz"
attr unit dBmWpMHz
par Grid.visualizer.canvasVisualizer.mediumVisualizer autoTimeAxis true
par Grid.visualizer.canvasVisualizer.mediumVisualizer signalMinTime 0s
attr unit s
par Grid.visualizer.canvasVisualizer.mediumVisualizer signalMaxTime 0s
attr unit s
par Grid.visualizer.canvasVisualizer.mediumVisualizer autoFrequencyAxis true
par Grid.visualizer.canvasVisualizer.mediumVisualizer signalMinFrequency "inf Hz"
attr unit Hz
par Grid.visualizer.canvasVisualizer.mediumVisualizer signalMaxFrequency "-inf Hz"
attr unit Hz
par Grid.visualizer.canvasVisualizer.mediumVisualizer displayMainPowerDensityMap false
par Grid.visualizer.canvasVisualizer.mediumVisualizer mainPowerDensityMapPixmapDensity 1
par Grid.visualizer.canvasVisualizer.mediumVisualizer mainPowerDensityMapMinX 0
par Grid.visualizer.canvasVisualizer.mediumVisualizer mainPowerDensityMapMaxX "nan "
par Grid.visualizer.canvasVisualizer.mediumVisualizer mainPowerDensityMapMinY 0
par Grid.visualizer.canvasVisualizer.mediumVisualizer mainPowerDensityMapMaxY "nan "
par Grid.visualizer.canvasVisualizer.mediumVisualizer mainPowerDensityMapZ 0
par Grid.visualizer.canvasVisualizer.mediumVisualizer mainPowerDensityMapFigureXTickCount 3
par Grid.visualizer.canvasVisualizer.mediumVisualizer mainPowerDensityMapFigureYTickCount 3
par Grid.visualizer.canvasVisualizer.mediumVisualizer displayPowerDensityMaps false
par Grid.visualizer.canvasVisualizer.mediumVisualizer powerDensityMapMode "\"auto\""
attr enum total,signal,auto
par Grid.visualizer.canvasVisualizer.mediumVisualizer powerDensityMapPixelMode "\"mean\""
attr enum sample,partition,mean
par Grid.visualizer.canvasVisualizer.mediumVisualizer powerDensityMapApproximationSize 10
par Grid.visualizer.canvasVisualizer.mediumVisualizer powerDensityMapCenterFrequency "nan Hz"
attr mutable ""
attr unit Hz
par Grid.visualizer.canvasVisualizer.mediumVisualizer powerDensityMapBandwidth 0Hz
attr mutable ""
attr unit Hz
par Grid.visualizer.canvasVisualizer.mediumVisualizer powerDensityMapFigureWidth 200
par Grid.visualizer.canvasVisualizer.mediumVisualizer powerDensityMapFigureHeight 120
par Grid.visualizer.canvasVisualizer.mediumVisualizer powerDensityMapPixmapWidth 200
par Grid.visualizer.canvasVisualizer.mediumVisualizer powerDensityMapPixmapHeight 120
par Grid.visualizer.canvasVisualizer.mediumVisualizer powerDensityMapZ 0
par Grid.visualizer.canvasVisualizer.mediumVisualizer powerDensityMapFigureXTickCount 3
par Grid.visualizer.canvasVisualizer.mediumVisualizer powerDensityMapFigureYTickCount 3
par Grid.visualizer.canvasVisualizer.mediumVisualizer displaySpectrums false
par Grid.visualizer.canvasVisualizer.mediumVisualizer spectrumMode "\"auto\""
attr enum total,signal,auto
par Grid.visualizer.canvasVisualizer.mediumVisualizer spectrumFigureWidth 200
par Grid.visualizer.canvasVisualizer.mediumVisualizer spectrumFigureHeight 120
par Grid.visualizer.canvasVisualizer.mediumVisualizer spectrumFigureXTickCount 3
par Grid.visualizer.canvasVisualizer.mediumVisualizer spectrumFigureYTickCount 5
par Grid.visualizer.canvasVisualizer.mediumVisualizer spectrumFigureInterpolationSize 5
par Grid.visualizer.canvasVisualizer.mediumVisualizer spectrumPlacementHint "\"bottomCenter\""
par Grid.visualizer.canvasVisualizer.mediumVisualizer spectrumPlacementPriority -1
par Grid.visualizer.canvasVisualizer.mediumVisualizer displaySpectrograms false
par Grid.visualizer.canvasVisualizer.mediumVisualizer spectrogramMode "\"auto\""
attr enum total,signal,auto
par Grid.visualizer.canvasVisualizer.mediumVisualizer spectrogramPixelMode "\"mean\""
attr enum sample,partition,mean
par Grid.visualizer.canvasVisualizer.mediumVisualizer spectrogramFigureWidth 200
par Grid.visualizer.canvasVisualizer.mediumVisualizer spectrogramFigureHeight 120
par Grid.visualizer.canvasVisualizer.mediumVisualizer spectrogramPixmapWidth 200
par Grid.visualizer.canvasVisualizer.mediumVisualizer spectrogramPixmapHeight 120
par Grid.visualizer.canvasVisualizer.mediumVisualizer spectrogramFigureXTickCount 3
par Grid.visualizer.canvasVisualizer.mediumVisualizer spectrogramFigureYTickCount 5
par Grid.visualizer.canvasVisualizer.mediumVisualizer spectrogramPlacementHint "\"bottomCenter\""
par Grid.visualizer.canvasVisualizer.mediumVisualizer spectrogramPlacementPriority -1
par Grid.visualizer.canvasVisualizer.mediumVisualizer zIndex 0
par Grid.visualizer.canvasVisualizer.mediumVisualizer signalShape "\"ring\""
attr enum ring,sphere
par Grid.visualizer.canvasVisualizer.mediumVisualizer signalOpacity 0.5
par Grid.visualizer.canvasVisualizer.mediumVisualizer signalRingCount 20
par Grid.visualizer.canvasVisualizer.mediumVisualizer signalRingSize 50m
attr unit m
par Grid.visualizer.canvasVisualizer.mediumVisualizer signalFadingDistance 50m
attr unit m
par Grid.visualizer.canvasVisualizer.mediumVisualizer signalFadingFactor 1.2
par Grid.visualizer.canvasVisualizer.mediumVisualizer signalWaveCount 20
par Grid.visualizer.canvasVisualizer.mediumVisualizer signalWaveLength 50m
attr unit m
par Grid.visualizer.canvasVisualizer.mediumVisualizer signalWaveWidth 10m
attr unit m
par Grid.visualizer.canvasVisualizer.mediumVisualizer signalWaveFadingAnimationSpeedFactor 1
par Grid.visualizer.canvasVisualizer.mediumVisualizer displayCommunicationHeat false
par Grid.visualizer.canvasVisualizer.obstacleLossVisualizer typename "\"inet.visualizer.canvas.physicallayer.TracingObstacleLossCanvasVisualizer\""
par Grid.visualizer.canvasVisualizer.obstacleLossVisualizer visualizationTargetModule "\"^.^.^\""
par Grid.visualizer.canvasVisualizer.obstacleLossVisualizer visualizationSubjectModule "\"^.^.^\""
par Grid.visualizer.canvasVisualizer.obstacleLossVisualizer tags "\"\""
par Grid.visualizer.canvasVisualizer.obstacleLossVisualizer displayIntersections false
par Grid.visualizer.canvasVisualizer.obstacleLossVisualizer intersectionLineColor "\"red\""
par Grid.visualizer.canvasVisualizer.obstacleLossVisualizer intersectionLineStyle "\"solid\""
par Grid.visualizer.canvasVisualizer.obstacleLossVisualizer intersectionLineWidth 1
par Grid.visualizer.canvasVisualizer.obstacleLossVisualizer displayFaceNormalVectors false
par Grid.visualizer.canvasVisualizer.obstacleLossVisualizer faceNormalLineColor "\"grey\""
par Grid.visualizer.canvasVisualizer.obstacleLossVisualizer faceNormalLineStyle "\"solid\""
par Grid.visualizer.canvasVisualizer.obstacleLossVisualizer faceNormalLineWidth 1
par Grid.visualizer.canvasVisualizer.obstacleLossVisualizer fadeOutMode "\"realTime\""
attr enum realTime,animationTime,simulationTime
par Grid.visualizer.canvasVisualizer.obstacleLossVisualizer fadeOutTime 1s
attr unit s
par Grid.visualizer.canvasVisualizer.obstacleLossVisualizer fadeOutAnimationSpeed 0
par Grid.visualizer.canvasVisualizer.obstacleLossVisualizer zIndex 0
par Grid.visualizer.canvasVisualizer.packetDropVisualizer typename "\"inet.visualizer.canvas.common.PacketDropCanvasVisualizer\""
par Grid.visualizer.canvasVisualizer.packetDropVisualizer visualizationTargetModule "\"^.^.^\""
par Grid.visualizer.canvasVisualizer.packetDropVisualizer visualizationSubjectModule "\"^.^.^\""
par Grid.visualizer.canvasVisualizer.packetDropVisualizer tags "\"\""
par Grid.visualizer.canvasVisualizer.packetDropVisualizer displayPacketDrops false
par Grid.visualizer.canvasVisualizer.packetDropVisualizer nodeFilter "\"*\""
attr mutable ""
par Grid.visualizer.canvasVisualizer.packetDropVisualizer interfaceFilter "\"*\""
attr mutable ""
par Grid.visualizer.canvasVisualizer.packetDropVisualizer packetFilter "(omnetpp::cValueHolder)holder: \"*\""
attr mutable ""
par Grid.visualizer.canvasVisualizer.packetDropVisualizer detailsFilter "\"*\""
attr mutable ""
par Grid.visualizer.canvasVisualizer.packetDropVisualizer icon "\"msg/packet_s\""
par Grid.visualizer.canvasVisualizer.packetDropVisualizer iconTintAmount 1
par Grid.visualizer.canvasVisualizer.packetDropVisualizer iconTintColor "\"dark\""
par Grid.visualizer.canvasVisualizer.packetDropVisualizer labelFormat "\"%n\""
attr mutable ""
par Grid.visualizer.canvasVisualizer.packetDropVisualizer labelFont "\"<default>\""
par Grid.visualizer.canvasVisualizer.packetDropVisualizer labelColor "\"black\""
par Grid.visualizer.canvasVisualizer.packetDropVisualizer fadeOutMode "\"realTime\""
attr enum realTime,animationTime,simulationTime
par Grid.visualizer.canvasVisualizer.packetDropVisualizer fadeOutTime 1s
attr unit s
par Grid.visualizer.canvasVisualizer.packetDropVisualizer fadeOutAnimationSpeed 0
par Grid.visualizer.canvasVisualizer.packetDropVisualizer zIndex 10
par Grid.visualizer.canvasVisualizer.packetDropVisualizer dx 32
par Grid.visualizer.canvasVisualizer.packetDropVisualizer dy 64
par Grid.visualizer.canvasVisualizer.packetFlowVisualizer typename "\"inet.visualizer.canvas.flow.PacketFlowCanvasVisualizer\""
par Grid.visualizer.canvasVisualizer.packetFlowVisualizer visualizationTargetModule "\"^.^.^\""
par Grid.visualizer.canvasVisualizer.packetFlowVisualizer visualizationSubjectModule "\"^.^.^\""
par Grid.visualizer.canvasVisualizer.packetFlowVisualizer tags "\"\""
par Grid.visualizer.canvasVisualizer.packetFlowVisualizer displayRoutes false
par Grid.visualizer.canvasVisualizer.packetFlowVisualizer startPathSignal "\"packetFlowStarted\""
par Grid.visualizer.canvasVisualizer.packetFlowVisualizer extendPathSignal "\"packetReceivedFromLower\""
par Grid.visualizer.canvasVisualizer.packetFlowVisualizer endPathSignal "\"packetFlowEnded\""
par Grid.visualizer.canvasVisualizer.packetFlowVisualizer nodeFilter "\"*\""
attr mutable ""
par Grid.visualizer.canvasVisualizer.packetFlowVisualizer packetFilter "(omnetpp::cValueHolder)holder: \"*\""
attr mutable ""
par Grid.visualizer.canvasVisualizer.packetFlowVisualizer lineColor "\"dark\""
attr enum light,dark
par Grid.visualizer.canvasVisualizer.packetFlowVisualizer lineStyle "\"dashed\""
par Grid.visualizer.canvasVisualizer.packetFlowVisualizer lineWidth 3
par Grid.visualizer.canvasVisualizer.packetFlowVisualizer lineSmooth false
par Grid.visualizer.canvasVisualizer.packetFlowVisualizer lineShift 16
par Grid.visualizer.canvasVisualizer.packetFlowVisualizer lineShiftMode "\"normal\""
par Grid.visualizer.canvasVisualizer.packetFlowVisualizer lineContactSpacing 3
par Grid.visualizer.canvasVisualizer.packetFlowVisualizer lineContactMode "\"rectangular\""
attr enum circular,rectangular
par Grid.visualizer.canvasVisualizer.packetFlowVisualizer labelFormat "\"%L %p pk (%l)\""
par Grid.visualizer.canvasVisualizer.packetFlowVisualizer labelFont "\"<default>, 8px\""
par Grid.visualizer.canvasVisualizer.packetFlowVisualizer labelColor "\"\""
par Grid.visualizer.canvasVisualizer.packetFlowVisualizer fadeOutMode "\"realTime\""
attr enum realTime,animationTime,simulationTime
par Grid.visualizer.canvasVisualizer.packetFlowVisualizer fadeOutTime 0s
attr unit s
par Grid.visualizer.canvasVisualizer.packetFlowVisualizer fadeOutAnimationSpeed 0
par Grid.visualizer.canvasVisualizer.packetFlowVisualizer zIndex 4
par Grid.visualizer.canvasVisualizer.queueVisualizer typename "\"inet.visualizer.canvas.common.QueueCanvasVisualizer\""
par Grid.visualizer.canvasVisualizer.queueVisualizer visualizationTargetModule "\"^.^.^\""
par Grid.visualizer.canvasVisualizer.queueVisualizer visualizationSubjectModule "\"^.^.^\""
par Grid.visualizer.canvasVisualizer.queueVisualizer tags "\"\""
par Grid.visualizer.canvasVisualizer.queueVisualizer networkNodeVisualizerModule "\"^.networkNodeVisualizer\""
par Grid.visualizer.canvasVisualizer.queueVisualizer displayQueues false
par Grid.visualizer.canvasVisualizer.queueVisualizer queueFilter "\"**\""
par Grid.visualizer.canvasVisualizer.queueVisualizer color "\"blue\""
par Grid.visualizer.canvasVisualizer.queueVisualizer width 8
par Grid.visualizer.canvasVisualizer.queueVisualizer height 24
par Grid.visualizer.canvasVisualizer.queueVisualizer spacing 2
par Grid.visualizer.canvasVisualizer.queueVisualizer placementHint "\"right\""
par Grid.visualizer.canvasVisualizer.queueVisualizer placementPriority 0
par Grid.visualizer.canvasVisualizer.queueVisualizer zIndex 10
par Grid.visualizer.canvasVisualizer.gateScheduleVisualizer typename "\"inet.visualizer.canvas.common.GateScheduleCanvasVisualizer\""
par Grid.visualizer.canvasVisualizer.gateScheduleVisualizer visualizationTargetModule "\"^.^.^\""
par Grid.visualizer.canvasVisualizer.gateScheduleVisualizer visualizationSubjectModule "\"^.^.^\""
par Grid.visualizer.canvasVisualizer.gateScheduleVisualizer tags "\"\""
par Grid.visualizer.canvasVisualizer.gateScheduleVisualizer networkNodeVisualizerModule "\"^.networkNodeVisualizer\""
par Grid.visualizer.canvasVisualizer.gateScheduleVisualizer displayGateSchedules false
par Grid.visualizer.canvasVisualizer.gateScheduleVisualizer labelFormat "\"%i %D\""
par Grid.visualizer.canvasVisualizer.gateScheduleVisualizer gateFilter "\"**\""
par Grid.visualizer.canvasVisualizer.gateScheduleVisualizer width 100
par Grid.visualizer.canvasVisualizer.gateScheduleVisualizer height 8
par Grid.visualizer.canvasVisualizer.gateScheduleVisualizer spacing 2
par Grid.visualizer.canvasVisualizer.gateScheduleVisualizer placementHint "\"right\""
par Grid.visualizer.canvasVisualizer.gateScheduleVisualizer placementPriority 0
par Grid.visualizer.canvasVisualizer.gateScheduleVisualizer displayDuration 0s
attr mutable ""
attr unit s
par Grid.visualizer.canvasVisualizer.gateScheduleVisualizer currentTimePosition 50
par Grid.visualizer.canvasVisualizer.gateScheduleVisualizer zIndex 10
par Grid.visualizer.canvasVisualizer.radioVisualizer typename "\"inet.visualizer.canvas.physicallayer.RadioCanvasVisualizer\""
par Grid.visualizer.canvasVisualizer.radioVisualizer visualizationTargetModule "\"^.^.^\""
par Grid.visualizer.canvasVisualizer.radioVisualizer visualizationSubjectModule "\"^.^.^\""
par Grid.visualizer.canvasVisualizer.radioVisualizer tags "\"\""
par Grid.visualizer.canvasVisualizer.radioVisualizer networkNodeVisualizerModule "\"^.networkNodeVisualizer\""
par Grid.visualizer.canvasVisualizer.radioVisualizer displayRadios false
par Grid.visualizer.canvasVisualizer.radioVisualizer displayRadioMode true
par Grid.visualizer.canvasVisualizer.radioVisualizer displayReceptionState true
par Grid.visualizer.canvasVisualizer.radioVisualizer displayTransmissionState true
par Grid.visualizer.canvasVisualizer.radioVisualizer displayAntennaLobes false
par Grid.visualizer.canvasVisualizer.radioVisualizer radioFilter "\"**\""
attr mutable ""
par Grid.visualizer.canvasVisualizer.radioVisualizer radioModeImages "\"block/process_vs block/timer_vs block/wrx_vs block/wtx_vs block/wrxtx_vs block/cogwheel_vs\""
par Grid.visualizer.canvasVisualizer.radioVisualizer receptionStateImages "\"- - misc/receiving misc/receiving\""
par Grid.visualizer.canvasVisualizer.radioVisualizer transmissionStateImages "\"- - misc/transmitting\""
par Grid.visualizer.canvasVisualizer.radioVisualizer width 16
par Grid.visualizer.canvasVisualizer.radioVisualizer height 16
par Grid.visualizer.canvasVisualizer.radioVisualizer placementHint "\"bottomRight\""
par Grid.visualizer.canvasVisualizer.radioVisualizer placementPriority 0
par Grid.visualizer.canvasVisualizer.radioVisualizer antennaLobeNormalize false
par Grid.visualizer.canvasVisualizer.radioVisualizer antennaLobeRelativeLabels false
par Grid.visualizer.canvasVisualizer.radioVisualizer antennaLobePlaneGlobal true
par Grid.visualizer.canvasVisualizer.radioVisualizer antennaLobePlane "\"view\""
attr enum view,xy,xz,yz
par Grid.visualizer.canvasVisualizer.radioVisualizer antennaLobeMode "\"logarithmic\""
attr enum logarithmic,linear
par Grid.visualizer.canvasVisualizer.radioVisualizer antennaLobeLogarithmicBase 10
par Grid.visualizer.canvasVisualizer.radioVisualizer antennaLobeLogarithmicScale 100
par Grid.visualizer.canvasVisualizer.radioVisualizer antennaLobeRadius 100
par Grid.visualizer.canvasVisualizer.radioVisualizer antennaLobeStep 10deg
attr unit deg
par Grid.visualizer.canvasVisualizer.radioVisualizer antennaLobeOpacity 0.25
par Grid.visualizer.canvasVisualizer.radioVisualizer antennaLobeLineSmooth true
par Grid.visualizer.canvasVisualizer.radioVisualizer antennaLobeLineColor "\"black\""
par Grid.visualizer.canvasVisualizer.radioVisualizer antennaLobeLineStyle "\"solid\""
par Grid.visualizer.canvasVisualizer.radioVisualizer antennaLobeLineWidth 1
par Grid.visualizer.canvasVisualizer.radioVisualizer antennaLobeFillColor "\"white\""
par Grid.visualizer.canvasVisualizer.radioVisualizer zIndex 10
par Grid.visualizer.canvasVisualizer.physicalLinkVisualizer typename "\"inet.visualizer.canvas.physicallayer.PhysicalLinkCanvasVisualizer\""
par Grid.visualizer.canvasVisualizer.physicalLinkVisualizer visualizationTargetModule "\"^.^.^\""
par Grid.visualizer.canvasVisualizer.physicalLinkVisualizer visualizationSubjectModule "\"^.^.^\""
par Grid.visualizer.canvasVisualizer.physicalLinkVisualizer tags "\"\""
par Grid.visualizer.canvasVisualizer.physicalLinkVisualizer displayLinks false
par Grid.visualizer.canvasVisualizer.physicalLinkVisualizer activityLevel "\"service\""
attr enum service,peer,protocol
par Grid.visualizer.canvasVisualizer.physicalLinkVisualizer nodeFilter "\"*\""
attr mutable ""
par Grid.visualizer.canvasVisualizer.physicalLinkVisualizer interfaceFilter "\"*\""
attr mutable ""
par Grid.visualizer.canvasVisualizer.physicalLinkVisualizer packetFilter "(omnetpp::cValueHolder)holder: \"*\""
attr mutable ""
par Grid.visualizer.canvasVisualizer.physicalLinkVisualizer lineColor "\"olive\""
par Grid.visualizer.canvasVisualizer.physicalLinkVisualizer lineStyle "\"dotted\""
par Grid.visualizer.canvasVisualizer.physicalLinkVisualizer lineWidth 3
par Grid.visualizer.canvasVisualizer.physicalLinkVisualizer lineShift 16
par Grid.visualizer.canvasVisualizer.physicalLinkVisualizer lineShiftMode "\"normal\""
par Grid.visualizer.canvasVisualizer.physicalLinkVisualizer lineContactSpacing 3
par Grid.visualizer.canvasVisualizer.physicalLinkVisualizer lineContactMode "\"rectangular\""
attr enum circular,rectangular
par Grid.visualizer.canvasVisualizer.physicalLinkVisualizer labelFormat "\"%n\""
par Grid.visualizer.canvasVisualizer.physicalLinkVisualizer labelFont "\"<default>, 8px\""
par Grid.visualizer.canvasVisualizer.physicalLinkVisualizer labelColor "\"olive\""
par Grid.visualizer.canvasVisualizer.physicalLinkVisualizer fadeOutMode "\"realTime\""
attr enum realTime,animationTime,simulationTime
par Grid.visualizer.canvasVisualizer.physicalLinkVisualizer fadeOutTime 1s
attr unit s
par Grid.visualizer.canvasVisualizer.physicalLinkVisualizer fadeOutAnimationSpeed 0
par Grid.visualizer.canvasVisualizer.physicalLinkVisualizer holdAnimationTime 0s
attr unit s
par Grid.visualizer.canvasVisualizer.physicalLinkVisualizer zIndex 1
par Grid.visualizer.canvasVisualizer.interfaceTableVisualizer typename "\"inet.visualizer.canvas.linklayer.InterfaceTableCanvasVisualizer\""
par Grid.visualizer.canvasVisualizer.interfaceTableVisualizer visualizationTargetModule "\"^.^.^\""
par Grid.visualizer.canvasVisualizer.interfaceTableVisualizer visualizationSubjectModule "\"^.^.^\""
par Grid.visualizer.canvasVisualizer.interfaceTableVisualizer tags "\"\""
par Grid.visualizer.canvasVisualizer.interfaceTableVisualizer networkNodeVisualizerModule "\"^.networkNodeVisualizer\""
par Grid.visualizer.canvasVisualizer.interfaceTableVisualizer displayInterfaceTables false
par Grid.visualizer.canvasVisualizer.interfaceTableVisualizer displayWiredInterfacesAtConnections true
par Grid.visualizer.canvasVisualizer.interfaceTableVisualizer displayBackground false
par Grid.visualizer.canvasVisualizer.interfaceTableVisualizer nodeFilter "\"*\""
attr mutable ""
par Grid.visualizer.canvasVisualizer.interfaceTableVisualizer interfaceFilter "\"not(lo*)\""
attr mutable ""
par Grid.visualizer.canvasVisualizer.interfaceTableVisualizer format "\"%N %\\\\%a%/%l\""
attr mutable ""
par Grid.visualizer.canvasVisualizer.interfaceTableVisualizer placementHint "\"top\""
par Grid.visualizer.canvasVisualizer.interfaceTableVisualizer placementPriority 0
par Grid.visualizer.canvasVisualizer.interfaceTableVisualizer font "\"<default>\""
par Grid.visualizer.canvasVisualizer.interfaceTableVisualizer textColor "\"#005030\""
par Grid.visualizer.canvasVisualizer.interfaceTableVisualizer backgroundColor "\"white\""
par Grid.visualizer.canvasVisualizer.interfaceTableVisualizer opacity 1
par Grid.visualizer.canvasVisualizer.interfaceTableVisualizer zIndex 10
par Grid.visualizer.canvasVisualizer.dataLinkVisualizer typename "\"inet.visualizer.canvas.linklayer.DataLinkCanvasVisualizer\""
par Grid.visualizer.canvasVisualizer.dataLinkVisualizer visualizationTargetModule "\"^.^.^\""
par Grid.visualizer.canvasVisualizer.dataLinkVisualizer visualizationSubjectModule "\"^.^.^\""
par Grid.visualizer.canvasVisualizer.dataLinkVisualizer tags "\"\""
par Grid.visualizer.canvasVisualizer.dataLinkVisualizer displayLinks false
par Grid.visualizer.canvasVisualizer.dataLinkVisualizer activityLevel "\"service\""
attr enum service,peer,protocol
par Grid.visualizer.canvasVisualizer.dataLinkVisualizer nodeFilter "\"*\""
attr mutable ""
par Grid.visualizer.canvasVisualizer.dataLinkVisualizer interfaceFilter "\"*\""
attr mutable ""
par Grid.visualizer.canvasVisualizer.dataLinkVisualizer packetFilter "(omnetpp::cValueHolder)holder: \"*\""
attr mutable ""
par Grid.visualizer.canvasVisualizer.dataLinkVisualizer lineColor "\"darkcyan\""
par Grid.visualizer.canvasVisualizer.dataLinkVisualizer lineStyle "\"solid\""
par Grid.visualizer.canvasVisualizer.dataLinkVisualizer lineWidth 3
par Grid.visualizer.canvasVisualizer.dataLinkVisualizer lineShift 16
par Grid.visualizer.canvasVisualizer.dataLinkVisualizer lineShiftMode "\"normal\""
par Grid.visualizer.canvasVisualizer.dataLinkVisualizer lineContactSpacing 3
par Grid.visualizer.canvasVisualizer.dataLinkVisualizer lineContactMode "\"rectangular\""
attr enum circular,rectangular
par Grid.visualizer.canvasVisualizer.dataLinkVisualizer labelFormat "\"%n\""
par Grid.visualizer.canvasVisualizer.dataLinkVisualizer labelFont "\"<default>, 8px\""
par Grid.visualizer.canvasVisualizer.dataLinkVisualizer labelColor "\"darkcyan\""
par Grid.visualizer.canvasVisualizer.dataLinkVisualizer fadeOutMode "\"realTime\""
attr enum realTime,animationTime,simulationTime
par Grid.visualizer.canvasVisualizer.dataLinkVisualizer fadeOutTime 1s
attr unit s
par Grid.visualizer.canvasVisualizer.dataLinkVisualizer fadeOutAnimationSpeed 0
par Grid.visualizer.canvasVisualizer.dataLinkVisualizer holdAnimationTime 0s
attr unit s
par Grid.visualizer.canvasVisualizer.dataLinkVisualizer zIndex 2
par Grid.visualizer.canvasVisualizer.linkBreakVisualizer typename "\"inet.visualizer.canvas.linklayer.LinkBreakCanvasVisualizer\""
par Grid.visualizer.canvasVisualizer.linkBreakVisualizer visualizationTargetModule "\"^.^.^\""
par Grid.visualizer.canvasVisualizer.linkBreakVisualizer visualizationSubjectModule "\"^.^.^\""
par Grid.visualizer.canvasVisualizer.linkBreakVisualizer tags "\"\""
par Grid.visualizer.canvasVisualizer.linkBreakVisualizer displayLinkBreaks false
par Grid.visualizer.canvasVisualizer.linkBreakVisualizer nodeFilter "\"*\""
attr mutable ""
par Grid.visualizer.canvasVisualizer.linkBreakVisualizer interfaceFilter "\"*\""
attr mutable ""
par Grid.visualizer.canvasVisualizer.linkBreakVisualizer packetFilter "(omnetpp::cValueHolder)holder: \"*\""
attr mutable ""
par Grid.visualizer.canvasVisualizer.linkBreakVisualizer icon "\"status/stop\""
par Grid.visualizer.canvasVisualizer.linkBreakVisualizer iconTintAmount 0
par Grid.visualizer.canvasVisualizer.linkBreakVisualizer iconTintColor "\"\""
par Grid.visualizer.canvasVisualizer.linkBreakVisualizer fadeOutMode "\"realTime\""
attr enum realTime,animationTime,simulationTime
par Grid.visualizer.canvasVisualizer.linkBreakVisualizer fadeOutTime 1s
attr unit s
par Grid.visualizer.canvasVisualizer.linkBreakVisualizer fadeOutAnimationSpeed 0
par Grid.visualizer.canvasVisualizer.linkBreakVisualizer zIndex 2
par Grid.visualizer.canvasVisualizer.ieee80211Visualizer typename "\"inet.visualizer.canvas.linklayer.Ieee80211CanvasVisualizer\""
par Grid.visualizer.canvasVisualizer.ieee80211Visualizer visualizationTargetModule "\"^.^.^\""
par Grid.visualizer.canvasVisualizer.ieee80211Visualizer visualizationSubjectModule "\"^.^.^\""
par Grid.visualizer.canvasVisualizer.ieee80211Visualizer tags "\"\""
par Grid.visualizer.canvasVisualizer.ieee80211Visualizer networkNodeVisualizerModule "\"^.networkNodeVisualizer\""
par Grid.visualizer.canvasVisualizer.ieee80211Visualizer displayAssociations false
par Grid.visualizer.canvasVisualizer.ieee80211Visualizer nodeFilter "\"*\""
attr mutable ""
par Grid.visualizer.canvasVisualizer.ieee80211Visualizer interfaceFilter "\"*\""
attr mutable ""
par Grid.visualizer.canvasVisualizer.ieee80211Visualizer minPower -85dBm
attr unit dBm
par Grid.visualizer.canvasVisualizer.ieee80211Visualizer maxPower -50dBm
attr unit dBm
par Grid.visualizer.canvasVisualizer.ieee80211Visualizer icons "\"misc/signal_power_0 misc/signal_power_1 misc/signal_power_2 misc/signal_power_3\""
par Grid.visualizer.canvasVisualizer.ieee80211Visualizer iconColor "\"dark\""
attr enum light,dark
par Grid.visualizer.canvasVisualizer.ieee80211Visualizer labelFont "\"<default>\""
par Grid.visualizer.canvasVisualizer.ieee80211Visualizer labelColor "\"black\""
par Grid.visualizer.canvasVisualizer.ieee80211Visualizer placementHint "\"top\""
par Grid.visualizer.canvasVisualizer.ieee80211Visualizer placementPriority 0
par Grid.visualizer.canvasVisualizer.ieee80211Visualizer zIndex 2
par Grid.visualizer.canvasVisualizer.networkRouteVisualizer typename "\"inet.visualizer.canvas.networklayer.NetworkRouteCanvasVisualizer\""
par Grid.visualizer.canvasVisualizer.networkRouteVisualizer visualizationTargetModule "\"^.^.^\""
par Grid.visualizer.canvasVisualizer.networkRouteVisualizer visualizationSubjectModule "\"^.^.^\""
par Grid.visualizer.canvasVisualizer.networkRouteVisualizer tags "\"\""
par Grid.visualizer.canvasVisualizer.networkRouteVisualizer displayRoutes false
par Grid.visualizer.canvasVisualizer.networkRouteVisualizer startPathSignal "\"packetReceivedFromUpper\""
par Grid.visualizer.canvasVisualizer.networkRouteVisualizer extendPathSignal "\"packetReceivedFromLower\""
par Grid.visualizer.canvasVisualizer.networkRouteVisualizer endPathSignal "\"packetSentToUpper\""
par Grid.visualizer.canvasVisualizer.networkRouteVisualizer nodeFilter "\"*\""
attr mutable ""
par Grid.visualizer.canvasVisualizer.networkRouteVisualizer packetFilter "(omnetpp::cValueHolder)holder: \"*\""
attr mutable ""
par Grid.visualizer.canvasVisualizer.networkRouteVisualizer lineColor "\"dark\""
attr enum light,dark
par Grid.visualizer.canvasVisualizer.networkRouteVisualizer lineStyle "\"solid\""
par Grid.visualizer.canvasVisualizer.networkRouteVisualizer lineWidth 3
par Grid.visualizer.canvasVisualizer.networkRouteVisualizer lineSmooth false
par Grid.visualizer.canvasVisualizer.networkRouteVisualizer lineShift 16
par Grid.visualizer.canvasVisualizer.networkRouteVisualizer lineShiftMode "\"normal\""
par Grid.visualizer.canvasVisualizer.networkRouteVisualizer lineContactSpacing 3
par Grid.visualizer.canvasVisualizer.networkRouteVisualizer lineContactMode "\"rectangular\""
attr enum circular,rectangular
par Grid.visualizer.canvasVisualizer.networkRouteVisualizer labelFormat "\"%n\""
par Grid.visualizer.canvasVisualizer.networkRouteVisualizer labelFont "\"<default>, 8px\""
par Grid.visualizer.canvasVisualizer.networkRouteVisualizer labelColor "\"\""
par Grid.visualizer.canvasVisualizer.networkRouteVisualizer fadeOutMode "\"realTime\""
attr enum realTime,animationTime,simulationTime
par Grid.visualizer.canvasVisualizer.networkRouteVisualizer fadeOutTime 1s
attr unit s
par Grid.visualizer.canvasVisualizer.networkRouteVisualizer fadeOutAnimationSpeed 0
par Grid.visualizer.canvasVisualizer.networkRouteVisualizer zIndex 3
par Grid.visualizer.canvasVisualizer.routingTableVisualizer typename "\"inet.visualizer.canvas.networklayer.RoutingTableCanvasVisualizer\""
par Grid.visualizer.canvasVisualizer.routingTableVisualizer visualizationTargetModule "\"^.^.^\""
par Grid.visualizer.canvasVisualizer.routingTableVisualizer visualizationSubjectModule "\"^.^.^\""
par Grid.visualizer.canvasVisualizer.routingTableVisualizer tags "\"\""
par Grid.visualizer.canvasVisualizer.routingTableVisualizer displayRoutingTables false
par Grid.visualizer.canvasVisualizer.routingTableVisualizer displayRoutesIndividually true
par Grid.visualizer.canvasVisualizer.routingTableVisualizer displayLabels true
par Grid.visualizer.canvasVisualizer.routingTableVisualizer destinationFilter "\"*\""
attr mutable ""
par Grid.visualizer.canvasVisualizer.routingTableVisualizer nodeFilter "\"*\""
attr mutable ""
par Grid.visualizer.canvasVisualizer.routingTableVisualizer lineColor "\"black\""
par Grid.visualizer.canvasVisualizer.routingTableVisualizer lineStyle "\"solid\""
par Grid.visualizer.canvasVisualizer.routingTableVisualizer lineWidth 2
par Grid.visualizer.canvasVisualizer.routingTableVisualizer lineShift 16
par Grid.visualizer.canvasVisualizer.routingTableVisualizer lineShiftMode "\"normal\""
par Grid.visualizer.canvasVisualizer.routingTableVisualizer lineContactSpacing 3
par Grid.visualizer.canvasVisualizer.routingTableVisualizer lineContactMode "\"rectangular\""
attr enum circular,rectangular
par Grid.visualizer.canvasVisualizer.routingTableVisualizer labelFormat "\"%d/%m -> %g (%n)\""
attr mutable ""
par Grid.visualizer.canvasVisualizer.routingTableVisualizer labelFont "\"<default>, 8px\""
par Grid.visualizer.canvasVisualizer.routingTableVisualizer labelColor "\"black\""
par Grid.visualizer.canvasVisualizer.routingTableVisualizer zIndex 0
par Grid.visualizer.canvasVisualizer.transportRouteVisualizer typename "\"inet.visualizer.canvas.transportlayer.TransportRouteCanvasVisualizer\""
par Grid.visualizer.canvasVisualizer.transportRouteVisualizer visualizationTargetModule "\"^.^.^\""
par Grid.visualizer.canvasVisualizer.transportRouteVisualizer visualizationSubjectModule "\"^.^.^\""
par Grid.visualizer.canvasVisualizer.transportRouteVisualizer tags "\"\""
par Grid.visualizer.canvasVisualizer.transportRouteVisualizer displayRoutes false
par Grid.visualizer.canvasVisualizer.transportRouteVisualizer startPathSignal "\"packetReceivedFromUpper\""
par Grid.visualizer.canvasVisualizer.transportRouteVisualizer extendPathSignal "\"packetReceivedFromLower\""
par Grid.visualizer.canvasVisualizer.transportRouteVisualizer endPathSignal "\"packetSentToUpper\""
par Grid.visualizer.canvasVisualizer.transportRouteVisualizer nodeFilter "\"*\""
attr mutable ""
par Grid.visualizer.canvasVisualizer.transportRouteVisualizer packetFilter "(omnetpp::cValueHolder)holder: \"*\""
attr mutable ""
par Grid.visualizer.canvasVisualizer.transportRouteVisualizer lineColor "\"dark\""
attr enum light,dark
par Grid.visualizer.canvasVisualizer.transportRouteVisualizer lineStyle "\"solid\""
par Grid.visualizer.canvasVisualizer.transportRouteVisualizer lineWidth 3
par Grid.visualizer.canvasVisualizer.transportRouteVisualizer lineSmooth false
par Grid.visualizer.canvasVisualizer.transportRouteVisualizer lineShift 16
par Grid.visualizer.canvasVisualizer.transportRouteVisualizer lineShiftMode "\"normal\""
par Grid.visualizer.canvasVisualizer.transportRouteVisualizer lineContactSpacing 3
par Grid.visualizer.canvasVisualizer.transportRouteVisualizer lineContactMode "\"rectangular\""
attr enum circular,rectangular
par Grid.visualizer.canvasVisualizer.transportRouteVisualizer labelFormat "\"%n\""
par Grid.visualizer.canvasVisualizer.transportRouteVisualizer labelFont "\"<default>, 8px\""
par Grid.visualizer.canvasVisualizer.transportRouteVisualizer labelColor "\"\""
par Grid.visualizer.canvasVisualizer.transportRouteVisualizer fadeOutMode "\"realTime\""
attr enum realTime,animationTime,simulationTime
par Grid.visualizer.canvasVisualizer.transportRouteVisualizer fadeOutTime 1s
attr unit s
par Grid.visualizer.canvasVisualizer.transportRouteVisualizer fadeOutAnimationSpeed 0
par Grid.visualizer.canvasVisualizer.transportRouteVisualizer zIndex 4
par Grid.visualizer.canvasVisualizer.transportConnectionVisualizer typename "\"inet.visualizer.canvas.transportlayer.TransportConnectionCanvasVisualizer\""
par Grid.visualizer.canvasVisualizer.transportConnectionVisualizer visualizationTargetModule "\"^.^.^\""
par Grid.visualizer.canvasVisualizer.transportConnectionVisualizer visualizationSubjectModule "\"^.^.^\""
par Grid.visualizer.canvasVisualizer.transportConnectionVisualizer tags "\"\""
par Grid.visualizer.canvasVisualizer.transportConnectionVisualizer networkNodeVisualizerModule "\"^.networkNodeVisualizer\""
par Grid.visualizer.canvasVisualizer.transportConnectionVisualizer displayTransportConnections false
par Grid.visualizer.canvasVisualizer.transportConnectionVisualizer sourceNodeFilter "\"*\""
attr mutable ""
par Grid.visualizer.canvasVisualizer.transportConnectionVisualizer sourcePortFilter "\"*\""
attr mutable ""
par Grid.visualizer.canvasVisualizer.transportConnectionVisualizer destinationNodeFilter "\"*\""
attr mutable ""
par Grid.visualizer.canvasVisualizer.transportConnectionVisualizer destinationPortFilter "\"*\""
attr mutable ""
par Grid.visualizer.canvasVisualizer.transportConnectionVisualizer icon "\"misc/marker_s\""
par Grid.visualizer.canvasVisualizer.transportConnectionVisualizer iconColor "\"dark\""
attr enum light,dark
par Grid.visualizer.canvasVisualizer.transportConnectionVisualizer labelFont "\"<default>\""
par Grid.visualizer.canvasVisualizer.transportConnectionVisualizer labelColor "\"black\""
par Grid.visualizer.canvasVisualizer.transportConnectionVisualizer placementHint "\"top\""
par Grid.visualizer.canvasVisualizer.transportConnectionVisualizer placementPriority 0
par Grid.visualizer.canvasVisualizer.transportConnectionVisualizer zIndex 4
par Grid.visualizer.canvasVisualizer.failureProtectionConfigurationVisualizer typename "\"inet.visualizer.canvas.configurator.FailureProtectionConfigurationCanvasVisualizer\""
par Grid.visualizer.canvasVisualizer.failureProtectionConfigurationVisualizer visualizationTargetModule "\"^.^.^\""
par Grid.visualizer.canvasVisualizer.failureProtectionConfigurationVisualizer visualizationSubjectModule "\"^.^.^\""
par Grid.visualizer.canvasVisualizer.failureProtectionConfigurationVisualizer tags "\"\""
par Grid.visualizer.canvasVisualizer.failureProtectionConfigurationVisualizer displayTrees false
par Grid.visualizer.canvasVisualizer.failureProtectionConfigurationVisualizer lineColor "\"dark\""
attr enum light,dark
par Grid.visualizer.canvasVisualizer.failureProtectionConfigurationVisualizer lineStyle "\"solid\""
par Grid.visualizer.canvasVisualizer.failureProtectionConfigurationVisualizer lineWidth 3
par Grid.visualizer.canvasVisualizer.failureProtectionConfigurationVisualizer lineSmooth false
par Grid.visualizer.canvasVisualizer.failureProtectionConfigurationVisualizer lineShift 16
par Grid.visualizer.canvasVisualizer.failureProtectionConfigurationVisualizer lineShiftMode "\"normal\""
par Grid.visualizer.canvasVisualizer.failureProtectionConfigurationVisualizer lineContactSpacing 3
par Grid.visualizer.canvasVisualizer.failureProtectionConfigurationVisualizer lineContactMode "\"rectangular\""
attr enum circular,rectangular
par Grid.visualizer.canvasVisualizer.failureProtectionConfigurationVisualizer failureProtectionConfiguratorModule "\"failureProtectionConfigurator\""
par Grid.visualizer.canvasVisualizer.failureProtectionConfigurationVisualizer streamFilter "\"*\""
par Grid.visualizer.canvasVisualizer.failureProtectionConfigurationVisualizer zIndex 3
par Grid.visualizer.canvasVisualizer.streamRedundancyConfigurationVisualizer typename "\"inet.visualizer.canvas.configurator.StreamRedundancyConfigurationCanvasVisualizer\""
par Grid.visualizer.canvasVisualizer.streamRedundancyConfigurationVisualizer visualizationTargetModule "\"^.^.^\""
par Grid.visualizer.canvasVisualizer.streamRedundancyConfigurationVisualizer visualizationSubjectModule "\"^.^.^\""
par Grid.visualizer.canvasVisualizer.streamRedundancyConfigurationVisualizer tags "\"\""
par Grid.visualizer.canvasVisualizer.streamRedundancyConfigurationVisualizer displayTrees false
par Grid.visualizer.canvasVisualizer.streamRedundancyConfigurationVisualizer lineColor "\"dark\""
attr enum light,dark
par Grid.visualizer.canvasVisualizer.streamRedundancyConfigurationVisualizer lineStyle "\"solid\""
par Grid.visualizer.canvasVisualizer.streamRedundancyConfigurationVisualizer lineWidth 3
par Grid.visualizer.canvasVisualizer.streamRedundancyConfigurationVisualizer lineSmooth false
par Grid.visualizer.canvasVisualizer.streamRedundancyConfigurationVisualizer lineShift 16
par Grid.visualizer.canvasVisualizer.streamRedundancyConfigurationVisualizer lineShiftMode "\"normal\""
par Grid.visualizer.canvasVisualizer.streamRedundancyConfigurationVisualizer lineContactSpacing 3
par Grid.visualizer.canvasVisualizer.streamRedundancyConfigurationVisualizer lineContactMode "\"rectangular\""
attr enum circular,rectangular
par Grid.visualizer.canvasVisualizer.streamRedundancyConfigurationVisualizer streamRedundancyConfiguratorModule "\"streamRedundancyConfigurator\""
par Grid.visualizer.canvasVisualizer.streamRedundancyConfigurationVisualizer streamFilter "\"*\""
par Grid.visualizer.canvasVisualizer.streamRedundancyConfigurationVisualizer zIndex 3
par Grid.visualizer.canvasVisualizer typename "\"inet.visualizer.canvas.integrated.IntegratedCanvasVisualizer\""
par Grid.visualizer typename "\"inet.visualizer.common.IntegratedVisualizer\""
par Grid.radioMedium.propagation typename "\"inet.physicallayer.wireless.common.propagation.ConstantSpeedPropagation\""
par Grid.radioMedium.propagation propagationSpeed 2.99792e+08mps
attr unit mps
par Grid.radioMedium.propagation ignoreMovementDuringTransmission true
par Grid.radioMedium.propagation ignoreMovementDuringPropagation true
par Grid.radioMedium.propagation ignoreMovementDuringReception true
scalar Grid.radioMedium.propagation "Arrival computation count" 0
par Grid.radioMedium.analogModel typename "\"inet.physicallayer.wireless.common.analogmodel.packetlevel.ScalarAnalogModel\""
par Grid.radioMedium.analogModel ignorePartialInterference false
par Grid.radioMedium.backgroundNoise typename "\"inet.physicallayer.wireless.common.backgroundnoise.IsotropicScalarBackgroundNoise\""
par Grid.radioMedium.backgroundNoise power -110dBm
attr unit dBm
par Grid.radioMedium.backgroundNoise bandwidth "nan Hz"
attr unit Hz
par Grid.radioMedium.pathLoss typename "\"inet.physicallayer.wireless.common.pathloss.FreeSpacePathLoss\""
par Grid.radioMedium.pathLoss alpha 2
par Grid.radioMedium.pathLoss systemLoss 0dB
attr unit dB
par Grid.radioMedium.mediumLimitCache typename "\"inet.physicallayer.wireless.common.medium.MediumLimitCache\""
par Grid.radioMedium.mediumLimitCache centerFrequency "nan Hz"
attr unit Hz
par Grid.radioMedium.mediumLimitCache maxSpeed "nan mps"
attr unit mps
par Grid.radioMedium.mediumLimitCache maxTransmissionPower "nan W"
attr unit W
par Grid.radioMedium.mediumLimitCache minInterferencePower "nan dBm"
attr unit dBm
par Grid.radioMedium.mediumLimitCache minReceptionPower "nan dBm"
attr unit dBm
par Grid.radioMedium.mediumLimitCache maxAntennaGain 0dB
attr unit dB
par Grid.radioMedium.mediumLimitCache minInterferenceTime 1e-12s
attr unit s
par Grid.radioMedium.mediumLimitCache maxTransmissionDuration 0.01s
attr unit s
par Grid.radioMedium.mediumLimitCache maxCommunicationRange "nan m"
attr unit m
par Grid.radioMedium.mediumLimitCache maxInterferenceRange "nan m"
attr unit m
par Grid.radioMedium.communicationCache typename "\"inet.physicallayer.wireless.common.communicationcache.VectorCommunicationCache\""
par Grid.radioMedium typename "\"inet.physicallayer.wireless.common.medium.RadioMedium\""
par Grid.radioMedium physicalEnvironmentModule "\"physicalEnvironment\""
par Grid.radioMedium signalAnalogRepresentation "\"scalar\""
attr enum unitDisk,scalar,dimensional
par Grid.radioMedium rangeFilter "\"\""
par Grid.radioMedium radioModeFilter false
par Grid.radioMedium listeningFilter false
par Grid.radioMedium macAddressFilter false
par Grid.radioMedium recordTransmissionLog false
par Grid.radioMedium recordReceptionLog false
scalar Grid.radioMedium "transmission count" 0
scalar Grid.radioMedium "signal send count" 0
scalar Grid.radioMedium "reception computation count" 0
scalar Grid.radioMedium "interference computation count" 20
scalar Grid.radioMedium "reception decision computation count" 0
scalar Grid.radioMedium "listening decision computation count" 20
scalar Grid.radioMedium "reception cache hit" nan
attr unit %
scalar Grid.radioMedium "interference cache hit" nan
attr unit %
scalar Grid.radioMedium "noise cache hit" nan
attr unit %
scalar Grid.radioMedium "snir cache hit" nan
attr unit %
scalar Grid.radioMedium "reception decision cache hit" nan
attr unit %
scalar Grid.radioMedium "reception result cache hit" nan
attr unit %
par Grid.host[0].radioIn[0].channel typename "\"ned.IdealChannel\""
par Grid.host[0].energyStorage typename "\"inet.power.storage.IdealEpEnergyStorage\""
scalar Grid.host[0].energyStorage residualEnergyCapacity:last nan
attr interpolationmode linear
attr recordingmode last
attr source residualEnergyCapacityChanged
attr title "Residual energy capacity, last"
attr unit J
par Grid.host[0].mobility typename "\"inet.mobility.static.StaticGridMobility\""
par Grid.host[0].mobility subjectModule "\"^\""
par Grid.host[0].mobility coordinateSystemModule "\"\""
par Grid.host[0].mobility displayStringTextFormat "\"p: %p\\nv: %v\""
attr mutable ""
par Grid.host[0].mobility updateDisplayString true
par Grid.host[0].mobility constraintAreaMinX 0m
attr unit m
par Grid.host[0].mobility constraintAreaMinY 0m
attr unit m
par Grid.host[0].mobility constraintAreaMinZ 0m
attr unit m
par Grid.host[0].mobility constraintAreaMaxX 500m
attr unit m
par Grid.host[0].mobility constraintAreaMaxY 500m
attr unit m
par Grid.host[0].mobility constraintAreaMaxZ 0m
attr unit m
par Grid.host[0].mobility marginX 0m
attr unit m
par Grid.host[0].mobility marginY 0m
attr unit m
par Grid.host[0].mobility numHosts 9
par Grid.host[0].mobility columns 3
par Grid.host[0].mobility rows 3
par Grid.host[0].mobility initialZ 0m
attr unit m
par Grid.host[0].mobility separationX 166.667m
attr unit m
par Grid.host[0].mobility separationY 166.667m
attr unit m
par Grid.host[0].interfaceTable typename "\"inet.networklayer.common.InterfaceTable\""
par Grid.host[0].interfaceTable displayAddresses false
par Grid.host[0].cb typename "\"inet.common.MessageDispatcher\""
par Grid.host[0].cb displayStringTextFormat "\"processed %p pk (%l)\""
par Grid.host[0].cb forwardServiceRegistration true
par Grid.host[0].cb forwardProtocolRegistration true
par Grid.host[0].bl typename "\"inet.common.MessageDispatcher\""
par Grid.host[0].bl displayStringTextFormat "\"processed %p pk (%l)\""
par Grid.host[0].bl forwardServiceRegistration true
par Grid.host[0].bl forwardProtocolRegistration true
par Grid.host[0].li typename "\"inet.common.MessageDispatcher\""
par Grid.host[0].li displayStringTextFormat "\"processed %p pk (%l)\""
par Grid.host[0].li forwardServiceRegistration true
par Grid.host[0].li forwardProtocolRegistration true
par Grid.host[0].lo[0].upperLayerIn.channel typename "\"ned.IdealChannel\""
par Grid.host[0].lo[0].lo.upperLayerOut.channel typename "\"ned.IdealChannel\""
par Grid.host[0].lo[0].lo typename "\"inet.linklayer.loopback.Loopback\""
par Grid.host[0].lo[0].lo interfaceTableModule "\"Grid.host[0].interfaceTable\""
par Grid.host[0].lo[0].lo mtu 4470B
attr unit B
scalar Grid.host[0].lo[0].lo rcvdPkFromHl:count 0
attr interpolationmode none
attr recordingmode count
attr source packetReceivedFromUpper
attr title "packets received from higher layer, count"
scalar Grid.host[0].lo[0].lo rcvdPkFromHl:sum(packetBytes) 0
attr interpolationmode none
attr recordingmode sum(packetBytes)
attr source packetReceivedFromUpper
attr title "packets received from higher layer, sum(packetBytes)"
scalar Grid.host[0].lo[0].lo passedUpPk:count 0
attr interpolationmode none
attr recordingmode count
attr source packetSentToUpper
attr title "packets passed to higher layer, count"
scalar Grid.host[0].lo[0].lo passedUpPk:sum(packetBytes) 0
attr interpolationmode none
attr recordingmode sum(packetBytes)
attr source packetSentToUpper
attr title "packets passed to higher layer, sum(packetBytes)"
par Grid.host[0].lo[0] typename "\"inet.linklayer.loopback.LoopbackInterface\""
par Grid.host[0].lo[0] displayStringTextFormat "\"%a (%i)\\n%m\""
par Grid.host[0].lo[0] recordPcap false
par Grid.host[0].lo[0] numPcapRecorders 0
par Grid.host[0].lo[0] interfaceTableModule "\"Grid.host[0].interfaceTable\""
scalar Grid.host[0].lo[0] packetDropInterfaceDown:count 0
attr interpolationmode none
attr recordingmode count
attr source packetDropReasonIsInterfaceDown(packetDropped)
attr title "packet drops: interface down, count"
scalar Grid.host[0].lo[0] packetDropInterfaceDown:sum(packetBytes) 0
attr interpolationmode none
attr recordingmode sum(packetBytes)
attr source packetDropReasonIsInterfaceDown(packetDropped)
attr title "packet drops: interface down, sum(packetBytes)"
scalar Grid.host[0].lo[0] packetDropNoCarrier:count 0
attr interpolationmode none
attr recordingmode count
attr source packetDropReasonIsNoCarrier(packetDropped)
attr title "packet drops: no carrier, count"
scalar Grid.host[0].lo[0] packetDropNoCarrier:sum(packetBytes) 0
attr interpolationmode none
attr recordingmode sum(packetBytes)
attr source packetDropReasonIsNoCarrier(packetDropped)
attr title "packet drops: no carrier, sum(packetBytes)"
par Grid.host[0].wlan[0].upperLayerIn.channel typename "\"ned.IdealChannel\""
par Grid.host[0].wlan[0].radioIn.channel typename "\"ned.IdealChannel\""
par Grid.host[0].wlan[0].mac.upperLayerOut.channel typename "\"ned.IdealChannel\""
par Grid.host[0].wlan[0].queue typename "\"inet.queueing.queue.DropTailQueue\""
par Grid.host[0].wlan[0].queue displayStringTextFormat "\"contains %p pk (%l) pushed %u\\npulled %o removed %r dropped %d\""
par Grid.host[0].wlan[0].queue packetCapacity 100
par Grid.host[0].wlan[0].queue dataCapacity -1b
attr unit b
par Grid.host[0].wlan[0].queue dropperClass "\"inet::queueing::PacketAtCollectionEndDropper\""
par Grid.host[0].wlan[0].queue comparatorClass "\"\""
par Grid.host[0].wlan[0].queue bufferModule "\"\""
scalar Grid.host[0].wlan[0].queue queueLength:last 0
attr autoWarmupFilter false
attr interpolationmode sample-hold
attr recordingmode last
attr source "warmup(atomic(constant0(packetPushEnded) + count(packetPushStarted) - count(packetPulled) - count(packetRemoved) - count(packetDropped)))"
attr title "queue length, last"
attr unit pk
scalar Grid.host[0].wlan[0].queue queueLength:max 0
attr autoWarmupFilter false
attr interpolationmode sample-hold
attr recordingmode max
attr source "warmup(atomic(constant0(packetPushEnded) + count(packetPushStarted) - count(packetPulled) - count(packetRemoved) - count(packetDropped)))"
attr title "queue length, max"
attr unit pk
scalar Grid.host[0].wlan[0].queue queueLength:timeavg 0
attr autoWarmupFilter false
attr interpolationmode sample-hold
attr recordingmode timeavg
attr source "warmup(atomic(constant0(packetPushEnded) + count(packetPushStarted) - count(packetPulled) - count(packetRemoved) - count(packetDropped)))"
attr title "queue length, timeavg"
attr unit pk
scalar Grid.host[0].wlan[0].queue queueBitLength:last 0
attr autoWarmupFilter false
attr interpolationmode sample-hold
attr recordingmode last
attr source "warmup(atomic(constant0(packetPushEnded) + sum(packetLength(packetPushStarted)) - sum(packetLength(packetPulled)) - sum(packetLength(packetRemoved)) - sum(packetLength(packetDropped))))"
attr title "queue bit length, last"
attr unit b
scalar Grid.host[0].wlan[0].queue queueBitLength:max 0
attr autoWarmupFilter false
attr interpolationmode sample-hold
attr recordingmode max
attr source "warmup(atomic(constant0(packetPushEnded) + sum(packetLength(packetPushStarted)) - sum(packetLength(packetPulled)) - sum(packetLength(packetRemoved)) - sum(packetLength(packetDropped))))"
attr title "queue bit length, max"
attr unit b
scalar Grid.host[0].wlan[0].queue queueBitLength:timeavg 0
attr autoWarmupFilter false
attr interpolationmode sample-hold
attr recordingmode timeavg
attr source "warmup(atomic(constant0(packetPushEnded) + sum(packetLength(packetPushStarted)) - sum(packetLength(packetPulled)) - sum(packetLength(packetRemoved)) - sum(packetLength(packetDropped))))"
attr title "queue bit length, timeavg"
attr unit b
statistic Grid.host[0].wlan[0].queue queueingTime:histogram
field count 0
field mean nan
field stddev nan
field min nan
field max nan
field sum 0
field sqrsum 0
attr interpolationmode none
attr recordingmode histogram
attr source queueingTime(packetPulled)
attr title "queueing times"
attr unit s
bin	-inf	0
bin	0	0
bin	1	0
scalar Grid.host[0].wlan[0].queue outgoingPackets:count 0
attr recordingmode count
attr source packetPulled
attr title "outgoing packets, count"
attr unit pk
scalar Grid.host[0].wlan[0].queue outgoingPacketLengths:sum 0
attr interpolationmode none
attr recordingmode sum
attr source packetLength(packetPulled)
attr title "outgoing packet lengths, sum"
attr unit b
statistic Grid.host[0].wlan[0].queue outgoingPacketLengths:histogram
field count 0
field mean nan
field stddev nan
field min nan
field max nan
field sum 0
field sqrsum 0
attr interpolationmode none
attr recordingmode histogram
attr source packetLength(packetPulled)
attr title "outgoing packet lengths"
attr unit b
bin	-inf	0
bin	0	0
bin	1	0
statistic Grid.host[0].wlan[0].queue flowQueueingTime:histogram
field count 0
field mean nan
field stddev nan
field min nan
field max nan
field sum 0
field sqrsum 0
attr interpolationmode none
attr recordingmode histogram
attr source queueingTime(demuxFlow(packetPulled))
attr title "flow queueing times"
attr unit s
bin	-inf	0
bin	0	0
bin	1	0
scalar Grid.host[0].wlan[0].queue incomingPackets:count 0
attr recordingmode count
attr source packetPushStarted
attr title "incoming packets, count"
attr unit pk
scalar Grid.host[0].wlan[0].queue incomingPacketLengths:sum 0
attr interpolationmode none
attr recordingmode sum
attr source packetLength(packetPushStarted)
attr title "incoming packet lengths, sum"
attr unit b
statistic Grid.host[0].wlan[0].queue incomingPacketLengths:histogram
field count 0
field mean nan
field stddev nan
field min nan
field max nan
field sum 0
field sqrsum 0
attr interpolationmode none
attr recordingmode histogram
attr source packetLength(packetPushStarted)
attr title "incoming packet lengths"
attr unit b
bin	-inf	0
bin	0	0
bin	1	0
scalar Grid.host[0].wlan[0].queue droppedPacketsQueueOverflow:count 0
attr interpolationmode none
attr recordingmode count
attr source packetDropReasonIsQueueOverflow(packetDropped)
attr title "dropped packets: queue overflow, count"
attr unit pk
scalar Grid.host[0].wlan[0].queue droppedPacketLengthsQueueOverflow:sum 0
attr interpolationmode none
attr recordingmode sum
attr source packetLength(packetDropReasonIsQueueOverflow(packetDropped))
attr title "dropped packet lengths: queue overflow, sum"
attr unit b
par Grid.host[0].wlan[0].mac typename "\"inet.linklayer.ieee802154.Ieee802154NarrowbandMac\""
par Grid.host[0].wlan[0].mac interfaceTableModule "\"Grid.host[0].interfaceTable\""
par Grid.host[0].wlan[0].mac address "\"auto\""
attr mutable ""
par Grid.host[0].wlan[0].mac headerLength 72b
attr unit b
par Grid.host[0].wlan[0].mac mtu 118B
attr unit B
par Grid.host[0].wlan[0].mac bitrate 250000bps
attr unit bps
par Grid.host[0].wlan[0].mac ccaDetectionTime 0.000128s
attr unit s
par Grid.host[0].wlan[0].mac rxSetupTime 0s
attr unit s
par Grid.host[0].wlan[0].mac aTurnaroundTime 0.000192s
attr unit s
par Grid.host[0].wlan[0].mac useMACAcks true
par Grid.host[0].wlan[0].mac macMaxFrameRetries 3
par Grid.host[0].wlan[0].mac macAckWaitDuration 0.00056s
attr unit s
par Grid.host[0].wlan[0].mac ackLength 40b
attr unit b
par Grid.host[0].wlan[0].mac sifs 0.000192s
attr unit s
par Grid.host[0].wlan[0].mac backoffMethod "\"exponential\""
par Grid.host[0].wlan[0].mac macMaxCSMABackoffs 4
par Grid.host[0].wlan[0].mac aUnitBackoffPeriod 0.00032s
attr unit s
par Grid.host[0].wlan[0].mac contentionWindow 2
par Grid.host[0].wlan[0].mac macMinBE 3
par Grid.host[0].wlan[0].mac macMaxBE 5
par Grid.host[0].wlan[0].mac radioModule "\"^.radio\""
scalar Grid.host[0].wlan[0].mac nbTxFrames 0
scalar Grid.host[0].wlan[0].mac nbRxFrames 0
scalar Grid.host[0].wlan[0].mac nbDroppedFrames 0
scalar Grid.host[0].wlan[0].mac nbMissedAcks 0
scalar Grid.host[0].wlan[0].mac nbRecvdAcks 0
scalar Grid.host[0].wlan[0].mac nbTxAcks 0
scalar Grid.host[0].wlan[0].mac nbDuplicates 0
scalar Grid.host[0].wlan[0].mac meanBackoff 0
scalar Grid.host[0].wlan[0].mac nbBackoffs 0
scalar Grid.host[0].wlan[0].mac backoffDurations 0
scalar Grid.host[0].wlan[0].mac packetDropNotAddressToUs:count 0
attr interpolationmode none
attr recordingmode count
attr source packetDropReasonIsNotAddressedToUs(packetDropped)
attr title "packet drop: not addressed to us, count"
scalar Grid.host[0].wlan[0].mac packetDropNotAddressToUs:sum(packetBytes) 0
attr interpolationmode none
attr recordingmode sum(packetBytes)
attr source packetDropReasonIsNotAddressedToUs(packetDropped)
attr title "packet drop: not addressed to us, sum(packetBytes)"
scalar Grid.host[0].wlan[0].mac packetDropIncorrectlyReceived:count 0
attr interpolationmode none
attr recordingmode count
attr source packetDropReasonIsIncorrectlyReceived(packetDropped)
attr title "packet drop: incorrectly received, count"
scalar Grid.host[0].wlan[0].mac packetDropIncorrectlyReceived:sum(packetBytes) 0
attr interpolationmode none
attr recordingmode sum(packetBytes)
attr source packetDropReasonIsIncorrectlyReceived(packetDropped)
attr title "packet drop: incorrectly received, sum(packetBytes)"
scalar Grid.host[0].wlan[0].mac packetDropQueueOverflow:count 0
attr interpolationmode none
attr recordingmode count
attr source packetDropReasonIsQueueOverflow(packetDropped)
attr title "packet drop: queue overflow, count"
scalar Grid.host[0].wlan[0].mac packetDropQueueOverflow:sum(packetBytes) 0
attr interpolationmode none
attr recordingmode sum(packetBytes)
attr source packetDropReasonIsQueueOverflow(packetDropped)
attr title "packet drop: queue overflow, sum(packetBytes)"
scalar Grid.host[0].wlan[0].mac packetDropRetryLimitReached:count 0
attr interpolationmode none
attr recordingmode count
attr source packetDropReasonIsRetryLimitReached(packetDropped)
attr title "packet drop: retry limit reached, count"
scalar Grid.host[0].wlan[0].mac packetDropRetryLimitReached:sum(packetBytes) 0
attr interpolationmode none
attr recordingmode sum(packetBytes)
attr source packetDropReasonIsRetryLimitReached(packetDropped)
attr title "packet drop: retry limit reached, sum(packetBytes)"
scalar Grid.host[0].wlan[0].mac packetDropBackoffLimitReached:count 0
attr interpolationmode none
attr recordingmode count
attr source packetDropReasonIsCongestion(packetDropped)
attr title "packet drop: backoff limit reached, count"
scalar Grid.host[0].wlan[0].mac packetDropBackoffLimitReached:sum(packetBytes) 0
attr interpolationmode none
attr recordingmode sum(packetBytes)
attr source packetDropReasonIsCongestion(packetDropped)
attr title "packet drop: backoff limit reached, sum(packetBytes)"
scalar Grid.host[0].wlan[0].mac linkBroken:count 0
attr interpolationmode none
attr recordingmode count
attr source linkBroken
attr title "link break, count"
par Grid.host[0].wlan[0].radio.antenna typename "\"inet.physicallayer.wireless.common.antenna.IsotropicAntenna\""
par Grid.host[0].wlan[0].radio.antenna mobilityModule "\"^.^.^.mobility\""
par Grid.host[0].wlan[0].radio.antenna numAntennas 1
par Grid.host[0].wlan[0].radio.transmitter typename "\"inet.physicallayer.wireless.ieee802154.packetlevel.Ieee802154NarrowbandScalarTransmitter\""
par Grid.host[0].wlan[0].radio.transmitter preambleDuration 0.000128s
attr unit s
par Grid.host[0].wlan[0].radio.transmitter headerLength 16b
attr unit b
par Grid.host[0].wlan[0].radio.transmitter bitrate 250000bps
attr unit bps
par Grid.host[0].wlan[0].radio.transmitter power 0.00224W
attr unit W
par Grid.host[0].wlan[0].radio.transmitter centerFrequency 2.45e+09Hz
attr unit Hz
par Grid.host[0].wlan[0].radio.transmitter bandwidth 2.8e+06Hz
attr unit Hz
par Grid.host[0].wlan[0].radio.transmitter codeRate 1
par Grid.host[0].wlan[0].radio.transmitter modulation "\"DSSS-OQPSK-16\""
par Grid.host[0].wlan[0].radio.receiver.errorModel typename "\"inet.physicallayer.wireless.apsk.packetlevel.errormodel.ApskErrorModel\""
par Grid.host[0].wlan[0].radio.receiver.errorModel corruptionMode "\"packet\""
attr enum packet,chunk,byte,bit
par Grid.host[0].wlan[0].radio.receiver.errorModel snirMode "\"min\""
attr enum min,mean
par Grid.host[0].wlan[0].radio.receiver.errorModel snirOffset 0dB
attr unit dB
par Grid.host[0].wlan[0].radio.receiver typename "\"inet.physicallayer.wireless.ieee802154.packetlevel.Ieee802154NarrowbandScalarReceiver\""
par Grid.host[0].wlan[0].radio.receiver snirThreshold -8dB
attr unit dB
par Grid.host[0].wlan[0].radio.receiver snirThresholdMode "\"min\""
attr enum min,mean
par Grid.host[0].wlan[0].radio.receiver energyDetection -90dBm
attr unit dBm
par Grid.host[0].wlan[0].radio.receiver sensitivity -100dBm
attr unit dBm
par Grid.host[0].wlan[0].radio.receiver centerFrequency 2.45e+09Hz
attr unit Hz
par Grid.host[0].wlan[0].radio.receiver bandwidth 2.8e+06Hz
attr unit Hz
par Grid.host[0].wlan[0].radio.receiver modulation "\"DSSS-OQPSK-16\""
par Grid.host[0].wlan[0].radio.receiver minInterferencePower -120dBm
attr unit dBm
par Grid.host[0].wlan[0].radio.energyConsumer typename "\"inet.physicallayer.wireless.common.energyconsumer.SensorStateBasedEpEnergyConsumer\""
par Grid.host[0].wlan[0].radio.energyConsumer energySourceModule "\"Grid.host[0].energyStorage\""
par Grid.host[0].wlan[0].radio.energyConsumer offPowerConsumption 0W
attr unit W
par Grid.host[0].wlan[0].radio.energyConsumer sleepPowerConsumption 1e-06W
attr unit W
par Grid.host[0].wlan[0].radio.energyConsumer switchingPowerConsumption 0.025W
attr unit W
par Grid.host[0].wlan[0].radio.energyConsumer receiverIdlePowerConsumption 5e-06W
attr unit W
par Grid.host[0].wlan[0].radio.energyConsumer receiverBusyPowerConsumption 0.0001W
attr unit W
par Grid.host[0].wlan[0].radio.energyConsumer receiverReceivingPowerConsumption 0.05W
attr unit W
par Grid.host[0].wlan[0].radio.energyConsumer receiverReceivingPreamblePowerConsumption 0.05W
attr unit W
par Grid.host[0].wlan[0].radio.energyConsumer receiverReceivingHeaderPowerConsumption 0.05W
attr unit W
par Grid.host[0].wlan[0].radio.energyConsumer receiverReceivingDataPowerConsumption 0.05W
attr unit W
par Grid.host[0].wlan[0].radio.energyConsumer transmitterIdlePowerConsumption 0.005W
attr unit W
par Grid.host[0].wlan[0].radio.energyConsumer transmitterTransmittingPowerConsumption 0.075W
attr unit W
par Grid.host[0].wlan[0].radio.energyConsumer transmitterTransmittingPreamblePowerConsumption 0.075W
attr unit W
par Grid.host[0].wlan[0].radio.energyConsumer transmitterTransmittingHeaderPowerConsumption 0.075W
attr unit W
par Grid.host[0].wlan[0].radio.energyConsumer transmitterTransmittingDataPowerConsumption 0.075W
attr unit W
par Grid.host[0].wlan[0].radio typename "\"inet.physicallayer.wireless.ieee802154.packetlevel.Ieee802154NarrowbandScalarRadio\""
par Grid.host[0].wlan[0].radio radioMediumModule "\"radioMedium\""
par Grid.host[0].wlan[0].radio energySourceModule "\"Grid.host[0].energyStorage\""
par Grid.host[0].wlan[0].radio initialRadioMode "\"off\""
attr enum off,sleep,receiver,transmitter,transceiver
par Grid.host[0].wlan[0].radio switchingTimes "\"ms 0 0 0 0 0 0 0 0 0 0 0 0 0 0 0 0 0 0 0 0 0 0 0 0 0\""
par Grid.host[0].wlan[0].radio sendRawBytes false
par Grid.host[0].wlan[0].radio separateTransmissionParts false
par Grid.host[0].wlan[0].radio separateReceptionParts false
par Grid.host[0].wlan[0].radio displayCommunicationRange false
par Grid.host[0].wlan[0].radio displayInterferenceRange false
par Grid.host[0].wlan[0].radio centerFrequency 2.45e+09Hz
attr unit Hz
par Grid.host[0].wlan[0].radio bandwidth 2.8e+06Hz
attr unit Hz
par Grid.host[0].wlan[0].radio signalAnalogRepresentation "\"scalar\""
attr enum scalar,dimensional
statistic Grid.host[0].wlan[0].radio minSnir:histogram
field count 0
field mean nan
field stddev nan
field min nan
field max nan
field sum 0
field sqrsum 0
attr recordingmode histogram
attr source minimumSnir(packetSentToUpper)
attr title "Min SNIR"
bin	-inf	0
bin	0	0
bin	1	0
statistic Grid.host[0].wlan[0].radio packetErrorRate:histogram
field count 0
field mean nan
field stddev nan
field min nan
field max nan
field sum 0
field sqrsum 0
attr recordingmode histogram
attr source packetErrorRate(packetSentToUpper)
attr title "Packet error rate"
bin	-inf	0
bin	0	0
bin	1	0
statistic Grid.host[0].wlan[0].radio bitErrorRate:histogram
field count 0
field mean nan
field stddev nan
field min nan
field max nan
field sum 0
field sqrsum 0
attr recordingmode histogram
attr source bitErrorRate(packetSentToUpper)
attr title "Bit error rate"
bin	-inf	0
bin	0	0
bin	1	0
statistic Grid.host[0].wlan[0].radio symbolErrorRate:histogram
field count 0
field mean nan
field stddev nan
field min nan
field max nan
field sum 0
field sqrsum 0
attr recordingmode histogram
attr source symbolErrorRate(packetSentToUpper)
attr title "Symbol error rate"
bin	-inf	0
bin	0	0
bin	1	0
scalar Grid.host[0].wlan[0].radio transmissionState:count 0
attr interpolationmode sample-hold
attr recordingmode count
attr source transmissionStateChanged
attr title "Radio transmission state, count"
scalar Grid.host[0].wlan[0].radio receptionState:count 1
attr interpolationmode sample-hold
attr recordingmode count
attr source receptionStateChanged
attr title "Radio reception state, count"
scalar Grid.host[0].wlan[0].radio radioMode:count 3
attr interpolationmode sample-hold
attr recordingmode count
attr source radioModeChanged
attr title "Radio mode, count"
par Grid.host[0].wlan[0] typename "\"inet.linklayer.ieee802154.Ieee802154NarrowbandInterface\""
par Grid.host[0].wlan[0] displayStringTextFormat "\"%a (%i)\\n%m\""
par Grid.host[0].wlan[0] recordPcap false
par Grid.host[0].wlan[0] numPcapRecorders 0
par Grid.host[0].wlan[0] interfaceTableModule "\"Grid.host[0].interfaceTable\""
par Grid.host[0].wlan[0] energySourceModule "\"Grid.host[0].energyStorage\""
[...]
par Grid.target.wlan[0].radio.receiver.errorModel corruptionMode "\"packet\""
attr enum packet,chunk,byte,bit
par Grid.target.wlan[0].radio.receiver.errorModel snirMode "\"min\""
attr enum min,mean
par Grid.target.wlan[0].radio.receiver.errorModel snirOffset 0dB
attr unit dB
par Grid.target.wlan[0].radio.receiver typename "\"inet.physicallayer.wireless.ieee802154.packetlevel.Ieee802154NarrowbandScalarReceiver\""
par Grid.target.wlan[0].radio.receiver snirThreshold -8dB
attr unit dB
par Grid.target.wlan[0].radio.receiver snirThresholdMode "\"min\""
attr enum min,mean
par Grid.target.wlan[0].radio.receiver energyDetection -90dBm
attr unit dBm
par Grid.target.wlan[0].radio.receiver sensitivity -100dBm
attr unit dBm
par Grid.target.wlan[0].radio.receiver centerFrequency 2.45e+09Hz
attr unit Hz
par Grid.target.wlan[0].radio.receiver bandwidth 2.8e+06Hz
attr unit Hz
par Grid.target.wlan[0].radio.receiver modulation "\"DSSS-OQPSK-16\""
par Grid.target.wlan[0].radio.receiver minInterferencePower -120dBm
attr unit dBm
par Grid.target.wlan[0].radio.energyConsumer typename "\"inet.physicallayer.wireless.common.energyconsumer.SensorStateBasedEpEnergyConsumer\""
par Grid.target.wlan[0].radio.energyConsumer energySourceModule "\"Grid.target.energyStorage\""
par Grid.target.wlan[0].radio.energyConsumer offPowerConsumption 0W
attr unit W
par Grid.target.wlan[0].radio.energyConsumer sleepPowerConsumption 1e-06W
attr unit W
par Grid.target.wlan[0].radio.energyConsumer switchingPowerConsumption 0.025W
attr unit W
par Grid.target.wlan[0].radio.energyConsumer receiverIdlePowerConsumption 5e-06W
attr unit W
par Grid.target.wlan[0].radio.energyConsumer receiverBusyPowerConsumption 0.0001W
attr unit W
par Grid.target.wlan[0].radio.energyConsumer receiverReceivingPowerConsumption 0.05W
attr unit W
par Grid.target.wlan[0].radio.energyConsumer receiverReceivingPreamblePowerConsumption 0.05W
attr unit W
par Grid.target.wlan[0].radio.energyConsumer receiverReceivingHeaderPowerConsumption 0.05W
attr unit W
par Grid.target.wlan[0].radio.energyConsumer receiverReceivingDataPowerConsumption 0.05W
attr unit W
par Grid.target.wlan[0].radio.energyConsumer transmitterIdlePowerConsumption 0.005W
attr unit W
par Grid.target.wlan[0].radio.energyConsumer transmitterTransmittingPowerConsumption 0.075W
attr unit W
par Grid.target.wlan[0].radio.energyConsumer transmitterTransmittingPreamblePowerConsumption 0.075W
attr unit W
par Grid.target.wlan[0].radio.energyConsumer transmitterTransmittingHeaderPowerConsumption 0.075W
attr unit W
par Grid.target.wlan[0].radio.energyConsumer transmitterTransmittingDataPowerConsumption 0.075W
attr unit W
par Grid.target.wlan[0].radio typename "\"inet.physicallayer.wireless.ieee802154.packetlevel.Ieee802154NarrowbandScalarRadio\""
par Grid.target.wlan[0].radio radioMediumModule "\"radioMedium\""
par Grid.target.wlan[0].radio energySourceModule "\"Grid.target.energyStorage\""
par Grid.target.wlan[0].radio initialRadioMode "\"off\""
attr enum off,sleep,receiver,transmitter,transceiver
par Grid.target.wlan[0].radio switchingTimes "\"ms 0 0 0 0 0 0 0 0 0 0 0 0 0 0 0 0 0 0 0 0 0 0 0 0 0\""
par Grid.target.wlan[0].radio sendRawBytes false
par Grid.target.wlan[0].radio separateTransmissionParts false
par Grid.target.wlan[0].radio separateReceptionParts false
par Grid.target.wlan[0].radio displayCommunicationRange false
par Grid.target.wlan[0].radio displayInterferenceRange false
par Grid.target.wlan[0].radio centerFrequency 2.45e+09Hz
attr unit Hz
par Grid.target.wlan[0].radio bandwidth 2.8e+06Hz
attr unit Hz
par Grid.target.wlan[0].radio signalAnalogRepresentation "\"scalar\""
attr enum scalar,dimensional
statistic Grid.target.wlan[0].radio minSnir:histogram
field count 0
field mean nan
field stddev nan
field min nan
field max nan
field sum 0
field sqrsum 0
attr recordingmode histogram
attr source minimumSnir(packetSentToUpper)
attr title "Min SNIR"
bin	-inf	0
bin	0	0
bin	1	0
statistic Grid.target.wlan[0].radio packetErrorRate:histogram
field count 0
field mean nan
field stddev nan
field min nan
field max nan
field sum 0
field sqrsum 0
attr recordingmode histogram
attr source packetErrorRate(packetSentToUpper)
attr title "Packet error rate"
bin	-inf	0
bin	0	0
bin	1	0
statistic Grid.target.wlan[0].radio bitErrorRate:histogram
field count 0
field mean nan
field stddev nan
field min nan
field max nan
field sum 0
field sqrsum 0
attr recordingmode histogram
attr source bitErrorRate(packetSentToUpper)
attr title "Bit error rate"
bin	-inf	0
bin	0	0
bin	1	0
statistic Grid.target.wlan[0].radio symbolErrorRate:histogram
field count 0
field mean nan
field stddev nan
field min nan
field max nan
field sum 0
field sqrsum 0
attr recordingmode histogram
attr source symbolErrorRate(packetSentToUpper)
attr title "Symbol error rate"
bin	-inf	0
bin	0	0
bin	1	0
scalar Grid.target.wlan[0].radio transmissionState:count 0
attr interpolationmode sample-hold
attr recordingmode count
attr source transmissionStateChanged
attr title "Radio transmission state, count"
scalar Grid.target.wlan[0].radio receptionState:count 1
attr interpolationmode sample-hold
attr recordingmode count
attr source receptionStateChanged
attr title "Radio reception state, count"
scalar Grid.target.wlan[0].radio radioMode:count 3
attr interpolationmode sample-hold
attr recordingmode count
attr source radioModeChanged
attr title "Radio mode, count"
par Grid.target.wlan[0] typename "\"inet.linklayer.ieee802154.Ieee802154NarrowbandInterface\""
par Grid.target.wlan[0] displayStringTextFormat "\"%a (%i)\\n%m\""
par Grid.target.wlan[0] recordPcap false
par Grid.target.wlan[0] numPcapRecorders 0
par Grid.target.wlan[0] interfaceTableModule "\"Grid.target.interfaceTable\""
par Grid.target.wlan[0] energySourceModule "\"Grid.target.energyStorage\""
scalar Grid.target.wlan[0] packetDropInterfaceDown:count 0
attr interpolationmode none
attr recordingmode count
attr source packetDropReasonIsInterfaceDown(packetDropped)
attr title "packet drops: interface down, count"
scalar Grid.target.wlan[0] packetDropInterfaceDown:sum(packetBytes) 0
attr interpolationmode none
attr recordingmode sum(packetBytes)
attr source packetDropReasonIsInterfaceDown(packetDropped)
attr title "packet drops: interface down, sum(packetBytes)"
scalar Grid.target.wlan[0] packetDropNoCarrier:count 0
attr interpolationmode none
attr recordingmode count
attr source packetDropReasonIsNoCarrier(packetDropped)
attr title "packet drops: no carrier, count"
scalar Grid.target.wlan[0] packetDropNoCarrier:sum(packetBytes) 0
attr interpolationmode none
attr recordingmode sum(packetBytes)
attr source packetDropReasonIsNoCarrier(packetDropped)
attr title "packet drops: no carrier, sum(packetBytes)"
par Grid.target.ipv4.transportIn.channel typename "\"ned.IdealChannel\""
par Grid.target.ipv4.up.out[0].channel typename "\"ned.IdealChannel\""
par Grid.target.ipv4.lp.out[2].channel typename "\"ned.IdealChannel\""
par Grid.target.ipv4.ifIn.channel typename "\"ned.IdealChannel\""
par Grid.target.ipv4.configurator typename "\"inet.networklayer.configurator.ipv4.Ipv4NodeConfigurator\""
par Grid.target.ipv4.configurator interfaceTableModule "\"Grid.target.interfaceTable\""
par Grid.target.ipv4.configurator routingTableModule "\"Grid.target.ipv4.routingTable\""
par Grid.target.ipv4.configurator networkConfiguratorModule "\"configurator\""
par Grid.target.ipv4.configurator configureRoutingTable true
par Grid.target.ipv4.routingTable typename "\"inet.networklayer.ipv4.Ipv4RoutingTable\""
par Grid.target.ipv4.routingTable interfaceTableModule "\"Grid.target.interfaceTable\""
par Grid.target.ipv4.routingTable routerId "\"auto\""
par Grid.target.ipv4.routingTable netmaskRoutes "\"*\""
par Grid.target.ipv4.routingTable forwarding false
par Grid.target.ipv4.routingTable multicastForwarding false
par Grid.target.ipv4.routingTable useAdminDist false
par Grid.target.ipv4.routingTable routingFile "\"\""
par Grid.target.ipv4.natTable typename "\"inet.networklayer.ipv4.Ipv4NatTable\""
par Grid.target.ipv4.natTable networkProtocolModule "\"^.ip\""
par Grid.target.ipv4.natTable config "<config/> at content:1"
par Grid.target.ipv4.up typename "\"inet.common.MessageDispatcher\""
par Grid.target.ipv4.up displayStringTextFormat "\"processed %p pk (%l)\""
par Grid.target.ipv4.up forwardServiceRegistration true
par Grid.target.ipv4.up forwardProtocolRegistration true
par Grid.target.ipv4.igmp typename "\"inet.networklayer.ipv4.Igmpv2\""
par Grid.target.ipv4.igmp interfaceTableModule "\"Grid.target.interfaceTable\""
par Grid.target.ipv4.igmp routingTableModule "\"Grid.target.ipv4.routingTable\""
par Grid.target.ipv4.igmp crcMode "\"declared\""
attr enum declared,computed
par Grid.target.ipv4.igmp enabled true
par Grid.target.ipv4.igmp robustnessVariable 2
par Grid.target.ipv4.igmp queryInterval 125s
attr unit s
par Grid.target.ipv4.igmp queryResponseInterval 10s
attr unit s
par Grid.target.ipv4.igmp groupMembershipInterval 260s
attr unit s
par Grid.target.ipv4.igmp otherQuerierPresentInterval 255s
attr unit s
par Grid.target.ipv4.igmp startupQueryInterval 31.25s
attr unit s
par Grid.target.ipv4.igmp startupQueryCount 2
par Grid.target.ipv4.igmp lastMemberQueryInterval 1s
attr unit s
par Grid.target.ipv4.igmp lastMemberQueryCount 2
par Grid.target.ipv4.igmp unsolicitedReportInterval 10s
attr unit s
par Grid.target.ipv4.icmp typename "\"inet.networklayer.ipv4.Icmp\""
par Grid.target.ipv4.icmp interfaceTableModule "\"Grid.target.interfaceTable\""
par Grid.target.ipv4.icmp routingTableModule "\"Grid.target.ipv4.routingTable\""
par Grid.target.ipv4.icmp crcMode "\"declared\""
attr enum declared,computed
attr mutable ""
par Grid.target.ipv4.icmp quoteLength 8B
attr mutable ""
attr unit B
par Grid.target.ipv4.mp typename "\"inet.common.MessageDispatcher\""
par Grid.target.ipv4.mp displayStringTextFormat "\"processed %p pk (%l)\""
par Grid.target.ipv4.mp forwardServiceRegistration true
par Grid.target.ipv4.mp forwardProtocolRegistration true
par Grid.target.ipv4.ip typename "\"inet.networklayer.ipv4.Ipv4\""
par Grid.target.ipv4.ip interfaceTableModule "\"Grid.target.interfaceTable\""
par Grid.target.ipv4.ip routingTableModule "\"Grid.target.ipv4.routingTable\""
par Grid.target.ipv4.ip arpModule "\"Grid.target.ipv4.arp\""
par Grid.target.ipv4.ip icmpModule "\"Grid.target.ipv4.icmp\""
par Grid.target.ipv4.ip crcMode "\"declared\""
attr enum declared,computed
par Grid.target.ipv4.ip timeToLive 32
par Grid.target.ipv4.ip multicastTimeToLive 32
par Grid.target.ipv4.ip fragmentTimeout 60s
attr unit s
par Grid.target.ipv4.ip limitedBroadcast false
par Grid.target.ipv4.ip directBroadcastInterfaces "\"\""
scalar Grid.target.ipv4.ip packetDropAddressResolutionFailed:count 0
attr interpolationmode none
attr recordingmode count
attr source packetDropReasonIsAddressResolutionFailed(packetDropped)
attr title "packet drop: address resolution failed, count"
scalar Grid.target.ipv4.ip packetDropAddressResolutionFailed:sum(packetBytes) 0
attr interpolationmode none
attr recordingmode sum(packetBytes)
attr source packetDropReasonIsAddressResolutionFailed(packetDropped)
attr title "packet drop: address resolution failed, sum(packetBytes)"
scalar Grid.target.ipv4.ip packetDropHopLimitReached:count 0
attr interpolationmode none
attr recordingmode count
attr source packetDropReasonIsHopLimitReached(packetDropped)
attr title "packet drop: hop limit reached, count"
scalar Grid.target.ipv4.ip packetDropHopLimitReached:sum(packetBytes) 0
attr interpolationmode none
attr recordingmode sum(packetBytes)
attr source packetDropReasonIsHopLimitReached(packetDropped)
attr title "packet drop: hop limit reached, sum(packetBytes)"
scalar Grid.target.ipv4.ip packetDropForwardingDisabled:count 0
attr interpolationmode none
attr recordingmode count
attr source packetDropReasonIsForwardingDisabled(packetDropped)
attr title "packet drop: forwarding disabled, count"
scalar Grid.target.ipv4.ip packetDropForwardingDisabled:sum(packetBytes) 0
attr interpolationmode none
attr recordingmode sum(packetBytes)
attr source packetDropReasonIsForwardingDisabled(packetDropped)
attr title "packet drop: forwarding disabled, sum(packetBytes)"
scalar Grid.target.ipv4.ip packetDropNoInterfaceFound:count 0
attr interpolationmode none
attr recordingmode count
attr source packetDropReasonIsNoInterfaceFound(packetDropped)
attr title "packet drop: no interface found, count"
scalar Grid.target.ipv4.ip packetDropNoInterfaceFound:sum(packetBytes) 0
attr interpolationmode none
attr recordingmode sum(packetBytes)
attr source packetDropReasonIsNoInterfaceFound(packetDropped)
attr title "packet drop: no interface found, sum(packetBytes)"
scalar Grid.target.ipv4.ip packetDropNoRouteFound:count 0
attr interpolationmode none
attr recordingmode count
attr source packetDropReasonIsNoRouteFound(packetDropped)
attr title "packet drop: no route found, count"
scalar Grid.target.ipv4.ip packetDropNoRouteFound:sum(packetBytes) 0
attr interpolationmode none
attr recordingmode sum(packetBytes)
attr source packetDropReasonIsNoRouteFound(packetDropped)
attr title "packet drop: no route found, sum(packetBytes)"
scalar Grid.target.ipv4.ip packetDropUndefined:count 0
attr interpolationmode none
attr recordingmode count
attr source packetDropReasonIsUndefined(packetDropped)
attr title "packet drop: undefined, count"
scalar Grid.target.ipv4.ip packetDropUndefined:sum(packetBytes) 0
attr interpolationmode none
attr recordingmode sum(packetBytes)
attr source packetDropReasonIsUndefined(packetDropped)
attr title "packet drop: undefined, sum(packetBytes)"
par Grid.target.ipv4.arp typename "\"inet.networklayer.arp.ipv4.Arp\""
par Grid.target.ipv4.arp interfaceTableModule "\"Grid.target.interfaceTable\""
par Grid.target.ipv4.arp routingTableModule "\"Grid.target.ipv4.routingTable\""
par Grid.target.ipv4.arp retryTimeout 1s
attr unit s
par Grid.target.ipv4.arp retryCount 3
par Grid.target.ipv4.arp cacheTimeout 120s
attr unit s
par Grid.target.ipv4.arp proxyArpInterfaces "\"*\""
scalar Grid.target.ipv4.arp arpReplySent:count 0
attr recordingmode count
attr source arpReplySent
attr title "ARP replies sent, count"
scalar Grid.target.ipv4.arp arpReplySent:sum(packetBytes) 0
attr recordingmode sum(packetBytes)
attr source arpReplySent
attr title "ARP replies sent, sum(packetBytes)"
scalar Grid.target.ipv4.arp arpRequestSent:count 0
attr recordingmode count
attr source arpRequestSent
attr title "ARP request sent, count"
scalar Grid.target.ipv4.arp arpRequestSent:sum(packetBytes) 0
attr recordingmode sum(packetBytes)
attr source arpRequestSent
attr title "ARP request sent, sum(packetBytes)"
scalar Grid.target.ipv4.arp arpResolutionFailed:count 0
attr recordingmode count
attr title "ARP failed resolutions, count"
scalar Grid.target.ipv4.arp arpResolutionCompleted:count 0
attr recordingmode count
attr title "ARP completed resolutions, count"
scalar Grid.target.ipv4.arp arpResolutionInitiated:count 0
attr recordingmode count
attr title "ARP initiated resolutions, count"
par Grid.target.ipv4.lp typename "\"inet.common.MessageDispatcher\""
par Grid.target.ipv4.lp displayStringTextFormat "\"processed %p pk (%l)\""
par Grid.target.ipv4.lp forwardServiceRegistration true
par Grid.target.ipv4.lp forwardProtocolRegistration true
par Grid.target.ipv4 typename "\"inet.networklayer.ipv4.Ipv4NetworkLayer\""
par Grid.target.ipv4 forwarding false
par Grid.target.ipv4 multicastForwarding false
par Grid.target.ipv4 interfaceTableModule "\"Grid.target.interfaceTable\""
par Grid.target.ipv4 displayStringTextFormat "\"%i\""
par Grid.target.nl typename "\"inet.common.MessageDispatcher\""
par Grid.target.nl displayStringTextFormat "\"processed %p pk (%l)\""
par Grid.target.nl forwardServiceRegistration true
par Grid.target.nl forwardProtocolRegistration true
par Grid.target.udp typename "\"inet.transportlayer.udp.Udp\""
par Grid.target.udp interfaceTableModule "\"Grid.target.interfaceTable\""
par Grid.target.udp icmpModule "\"^.ipv4.icmp\""
par Grid.target.udp icmpv6Module "\"^.ipv6.icmpv6\""
par Grid.target.udp crcMode "\"declared\""
attr enum disabled,declared,computed
par Grid.target.udp defaultMulticastLoop true
scalar Grid.target.udp packetReceived:count 0
attr interpolationmode none
attr recordingmode count
attr source packetReceived
attr title "packets received, count"
scalar Grid.target.udp packetReceived:sum(packetBytes) 0
attr interpolationmode none
attr recordingmode sum(packetBytes)
attr source packetReceived
attr title "packets received, sum(packetBytes)"
scalar Grid.target.udp packetSent:count 0
attr interpolationmode none
attr recordingmode count
attr source packetSent
attr title "packets sent, count"
scalar Grid.target.udp packetSent:sum(packetBytes) 0
attr interpolationmode none
attr recordingmode sum(packetBytes)
attr source packetSent
attr title "packets sent, sum(packetBytes)"
scalar Grid.target.udp passedUpPk:count 0
attr interpolationmode none
attr recordingmode count
attr source packetSentToUpper
attr title "packets passed up, count"
scalar Grid.target.udp droppedPkWrongPort:count 0
attr interpolationmode none
attr recordingmode count
attr source packetDropReasonIsNoPortFound(packetDropped)
attr title "packets dropped (wrong port), count"
scalar Grid.target.udp droppedPkBadChecksum:count 0
attr interpolationmode none
attr recordingmode count
attr source packetDropReasonIsIncorrectlyReceived(packetDropped)
attr title "packets dropped (checksum error), count"
par Grid.target.tcp typename "\"inet.transportlayer.tcp.Tcp\""
par Grid.target.tcp crcMode "\"declared\""
attr enum declared,computed
par Grid.target.tcp advertisedWindow 7504
par Grid.target.tcp delayedAcksEnabled false
par Grid.target.tcp nagleEnabled true
par Grid.target.tcp limitedTransmitEnabled false
par Grid.target.tcp increasedIWEnabled false
par Grid.target.tcp sackSupport false
par Grid.target.tcp windowScalingSupport false
par Grid.target.tcp windowScalingFactor -1
par Grid.target.tcp timestampSupport false
par Grid.target.tcp mss 536
par Grid.target.tcp msl 120s
attr unit s
par Grid.target.tcp tcpAlgorithmClass "\"TcpReno\""
attr enum TcpVegas,TcpWestwood,TcpNewReno,TcpReno,TcpTahoe,TcpNoCongestionControl
par Grid.target.tcp useDataNotification false
par Grid.target.tcp dupthresh 3
par Grid.target.tcp initialSsthresh 4294967295
par Grid.target.tcp stopOperationExtraTime 0s
attr unit s
par Grid.target.tcp stopOperationTimeout 2s
attr unit s
par Grid.target.tcp ecnWillingness false
par Grid.target.tcp dctcpGamma 0.0625
par Grid.target.tn typename "\"inet.common.MessageDispatcher\""
par Grid.target.tn displayStringTextFormat "\"processed %p pk (%l)\""
par Grid.target.tn forwardServiceRegistration true
par Grid.target.tn forwardProtocolRegistration true
par Grid.target.at typename "\"inet.common.MessageDispatcher\""
par Grid.target.at displayStringTextFormat "\"processed %p pk (%l)\""
par Grid.target.at forwardServiceRegistration true
par Grid.target.at forwardProtocolRegistration true
par Grid.target typename "\"inet.node.inet.SensorNode\""
par Grid.target hasStatus false
par Grid.target osgModel "\"\""
par Grid.target osgModelColor "\"\""
par Grid.target canvasImage "\"\""
par Grid.target canvasImageColor "\"\""
par Grid.target recordPcap false
par Grid.target numPcapRecorders 0
par Grid.target numLoInterfaces 1
par Grid.target numWlanInterfaces 1
par Grid.target numEthInterfaces 0
par Grid.target numPppInterfaces 0
par Grid.target numTunInterfaces 0
par Grid.target numVirtInterfaces 0
par Grid.target fcsMode "\"declared\""
attr enum declared,computed
par Grid.target hasIpv4 true
par Grid.target hasIpv6 false
par Grid.target hasGn false
par Grid.target forwarding false
par Grid.target multicastForwarding false
par Grid.target hasUdp true
par Grid.target hasTcp true
par Grid.target hasSctp false
par Grid.target numApps 0
par Grid typename "\"cs696.simulations.Grid\""
par Grid numHosts 9
attr prompt "Number of hosts"

